             27A	           4089E
             190	           3C6A0
             108	          156940
              DC	           47DED
              95	             212
              89	           37225
              7F	          138B94
              7E	           32D5B
              79	          1628F8
              71	           4DA84
              6F	          159256
              6E	           4A48C
              6D	           3BBCA
              6B	           80E56
              62	           3A285
              5B	           35043
              54	           3199B
              52	           407AE
              4E	           3C5E1
              42	          16A5A5
              41	          162955
              41	           3715A
              40	           2EE70
              3D	           2FA1F
              39	          1403BE
              39	           4D9C7
              38	           408B6
              38	           319E0
              37	          1568B3
              34	          140A98
              34	           D3FB5
              34	           7E8D6
              30	          164258
              30	           1EEE6
              2F	          138BAB
              2F	           2C73C
              2D	           2FA01
              2C	           47D5E
              2C	            E3F7
              2A	          1461A2
              2A	             15F
              28	          140ACA
              27	           3BE0E
              27	           38998
              27	           1D833
              26	           7F6DE
              26	           3008E
              24	          145BE4
              24	          13D2D0
              23	          187732
              23	          1552F2
              23	          138B65
              23	          134D4D
              23	           23524
              22	           80218
              22	           79352
              22	            7DA1
              1F	          16952A
              1F	          140DF3
              1F	          13E128
              1F	          13E0E2
              1F	          13828C
              1E	          18774A
              1E	          15A6E8
              1E	           2CBE8
              1E	           22B95
              1E	           16B85
              1D	          15901A
              1D	           4921B
              1D	           268B0
              1C	          1307DF
              1C	           81C98
              1C	           4B197
              1B	          1A1300
              1B	          1797C3
              1B	          15AD39
              1B	          156958
              1B	          140A81
              1B	           3B832
              1A	          15B0BE
              1A	           D6E1F
              1A	           263B3
              19	          19F94A
              19	          160ABC
              19	          15B820
              19	          1404A7
              19	           F1422
              19	           49662
              19	           270EE
              19	           1E724
              18	          19F0EC
              18	          18C3CD
              18	          18AAD4
              18	          188E95
              18	          13DE82
              18	           AF34B
              18	           96506
              18	           5229F
              18	           4BF54
              18	           4710B
              18	           35000
              18	           2E3AE
              18	            855F
              18	            7E4A
              17	          14012B
              17	          13DDC2
              17	           44154
              17	           3A250
              17	           32CFC
              17	           2CF23
              16	           DE771
              16	           4EA7D
              16	           4D1A5
              16	           27AB6
              16	           1C79E
              16	            865E
              16	            1629
              15	          168E60
              15	          1628E2
              15	          159284
              15	          14135D
              15	          140409
              15	          1397D3
              15	          117222
              15	           7E237
              15	           4B24A
              15	           2F8B8
              15	           248D7
              15	           182F0
              14	          19FEF2
              14	          19DF24
              14	          169FD3
              14	          168441
              14	          16479A
              14	          159033
              14	           D5F46
              14	           4B7FF
              14	           39B84
              14	           280A2
              13	          150117
              13	          14C3C9
              13	          14048E
              13	          1074D2
              13	           EC015
              13	           AF4EE
              13	           4B164
              13	           47E05
              13	           470F4
              13	           32E24
              13	           1E3E1
              13	           1DEC4
              13	             41A
              12	          15BD75
              12	          15BC38
              12	           F319F
              12	           C81B7
              12	           A339A
              12	           92CB7
              12	           47152
              12	           40883
              12	           3FA35
              12	           3D84D
              11	          1A1051
              11	          1A0431
              11	          162AA1
              11	          15B21B
              11	          15A569
              11	          13ED0C
              11	          1366A8
              11	           AA2EA
              11	           7FD83
              11	           5B5AA
              11	           42BDC
              11	           3EC9D
              11	           3C497
              11	           3278F
              11	           29147
              11	           28ED6
              11	           2282A
              11	            B9B3
              11	            8756
              10	          1A16EB
              10	          1A0F18
              10	          1A0493
              10	          169510
              10	          1661DD
              10	          15C4FE
              10	          15679E
              10	          140AB2
              10	          13ECA1
              10	           F9E25
              10	           CE12A
              10	           BD3AB
              10	           39B9F
              10	           37259
              10	           2DF6B
              10	           2C791
              10	           293B3
              10	           278BD
              10	           23FB5
              10	           237DB
              10	           1E3FA
              10	           1E0BA
              10	           1A87B
              10	            86F3
              10	            7E7C
              10	            7E13
               F	          19E8B8
               F	          19ABC0
               F	          199054
               F	          16B05B
               F	          166238
               F	          164288
               F	          164270
               F	          15FA6E
               F	          15C6F2
               F	          15BB9F
               F	          15A162
               F	          1444F0
               F	          13FD87
               F	          13FD52
               F	          130030
               F	           F12BF
               F	           F127C
               F	           EED40
               F	           D7FC3
               F	           D6FA0
               F	           C1773
               F	           BC863
               F	           B05F1
               F	           A8EDB
               F	           A8188
               F	           7F8D5
               F	           652B9
               F	           5B98F
               F	           37367
               F	           2E91D
               F	           2B5CF
               F	           2A292
               F	           23115
               F	           1DFFF
               F	           18EA4
               F	           13E4D
               F	            D038
               F	            7DB8
               F	            4EEE
               E	          19DF07
               E	          19B61B
               E	          16290D
               E	          15BEBE
               E	          1490B7
               E	          141018
               E	          140458
               E	          13DCAC
               E	          139798
               E	          139770
               E	          13864F
               E	          1366D6
               E	          1094FF
               E	          10592C
               E	           F576D
               E	           C8282
               E	           920B4
               E	           81EE9
               E	           7166B
               E	           4B1F8
               E	           4A403
               E	           49E47
               E	           482B3
               E	           40063
               E	           3E236
               E	           3C76F
               E	           3C6B8
               E	           31986
               E	           2F9C6
               E	           2B21C
               E	           27BCF
               E	           1E6A5
               E	            FB93
               E	            B9DC
               E	            20A4
               E	             49A
               D	          19FE6A
               D	          19B23B
               D	          186173
               D	          174D43
               D	          15A7F9
               D	          1548B8
               D	          14C3B2
               D	          13CE6B
               D	          13CA91
               D	          13B8DC
               D	          139B7B
               D	          116F7D
               D	           F1AC7
               D	           EE522
               D	           D5482
               D	           BBBD9
               D	           BAD7B
               D	           680ED
               D	           4A4E2
               D	           47BDE
               D	           40966
               D	           40799
               D	           3EE26
               D	           3823B
               D	           2EE3A
               D	           26DA8
               D	           25408
               D	           241AC
               D	           17413
               D	           17296
               D	           10C8C
               D	            86D9
               D	            7E61
               D	             447
               C	          16B20F
               C	          16638A
               C	          16287B
               C	          15C55D
               C	          15B7B9
               C	          14013B
               C	          13B484
               C	          139D1F
               C	          138668
               C	          1385BE
               C	          1383C4
               C	          11A0FB
               C	          1148D2
               C	          1068D6
               C	           F49A5
               C	           DCE55
               C	           D0541
               C	           B790D
               C	           B46D2
               C	           B37E1
               C	           96ADC
               C	           80E70
               C	           80BDF
               C	           7E69B
               C	           50F46
               C	           50AA0
               C	           4F887
               C	           4D9AE
               C	           408CF
               C	           3F9B7
               C	           2CE1C
               C	           289CB
               C	           22589
               C	           1D1B2
               C	           1384A
               C	           135F8
               C	            B123
               C	             148
               B	          1A044B
               B	          19FE35
               B	          19F0CD
               B	          19D369
               B	          199629
               B	          194E0C
               B	          18C3E7
               B	          180228
               B	          17B686
               B	          17B415
               B	          17381B
               B	          165F72
               B	          165BBF
               B	          163F67
               B	          162CB0
               B	          162A48
               B	          15FB20
               B	          15BF0A
               B	          15689E
               B	          15303B
               B	          14B999
               B	          1404C2
               B	          13FE08
               B	          13FBDB
               B	          13E0FA
               B	          138BED
               B	          134E67
               B	           F3687
               B	           EDFAC
               B	           E4C23
               B	           E2536
               B	           CB6A3
               B	           C7901
               B	           B3B87
               B	           6AD69
               B	           4B215
               B	           470A1
               B	           4708A
               B	           4700F
               B	           40782
               B	           4076B
               B	           4010C
               B	           3F157
               B	           37081
               B	           36D2B
               B	           34A32
               B	           34087
               B	           32D73
               B	           31863
               B	           2E6C5
               B	           2DB7C
               B	           29160
               B	           24B46
               B	           2153C
               B	           1F924
               B	           1EAA1
               B	           1C82E
               B	           1BA04
               B	           18BDA
               B	           16688
               B	           14FFE
               B	           145AA
               B	           125CC
               B	            B2B4
               B	            7B31
               A	          1977C8
               A	          173FC6
               A	          172B87
               A	          168726
               A	          1647C7
               A	          15FA24
               A	          15B76C
               A	          15A94A
               A	          159F75
               A	          152EDC
               A	          13F52A
               A	          1323F1
               A	          11E019
               A	          112D63
               A	          10DB48
               A	          109F5F
               A	           F3095
               A	           F09D1
               A	           E558E
               A	           E284C
               A	           E16A3
               A	           D94B9
               A	           D5112
               A	           BE0EA
               A	           B3E1C
               A	           B2C87
               A	           A47BF
               A	           9CEB0
               A	           56D4E
               A	           4E183
               A	           4C762
               A	           4B658
               A	           49A4E
               A	           3FA08
               A	           38787
               A	           370F3
               A	           3436E
               A	           30C93
               A	           2F9E3
               A	           2E7C2
               A	           2B1DB
               A	           26FFD
               A	           26C3B
               A	           251E9
               A	           23C94
               A	           230F0
               A	           1EF8B
               A	           157BF
               A	           145F7
               A	           137AB
               A	            AC0C
               A	            868D
               A	            7D88
               A	             3D1
               A	             262
               9	          19FF24
               9	          19FF0C
               9	          19CBB2
               9	          199012
               9	          198467
               9	          1927E7
               9	          18E497
               9	          18977A
               9	          186015
               9	          179FCB
               9	          16FBCD
               9	          16B1F7
               9	          16AE72
               9	          15FBE4
               9	          15B851
               9	          15AB89
               9	          15A731
               9	          1403ED
               9	          1402E2
               9	          138B51
               9	          1366EC
               9	          124902
               9	          1227F2
               9	          11C18D
               9	          10CFB5
               9	          100186
               9	           F1D8F
               9	           F05D7
               9	           E6634
               9	           DAA37
               9	           D8D3E
               9	           D20FD
               9	           CFBE7
               9	           CE719
               9	           CD282
               9	           CBD36
               9	           B5EF5
               9	           ACF5E
               9	           A13FE
               9	           9C8AD
               9	           8CD38
               9	           876DC
               9	           80CCA
               9	           7A912
               9	           6254F
               9	           5CC59
               9	           4F835
               9	           493E0
               9	           491D5
               9	           47CDF
               9	           47BC3
               9	           47126
               9	           470B8
               9	           3FA80
               9	           3F985
               9	           3DD2C
               9	           3C4A5
               9	           3BDF8
               9	           3B462
               9	           378A2
               9	           3723F
               9	           371D5
               9	           341BE
               9	           30AC7
               9	           306EB
               9	           2D68F
               9	           2D4A8
               9	           2B2ED
               9	           292CF
               9	           27042
               9	           25451
               9	           247EB
               9	           244CD
               9	           23A10
               9	           238E4
               9	           22D98
               9	           20ED8
               9	           1DA18
               9	           1A6AD
               9	           14D2C
               9	           138A1
               9	           13490
               9	           10AD8
               9	            D7A1
               9	            B1D4
               9	            B184
               9	            2006
               8	          1A12E7
               8	          1A1279
               8	          19EFB1
               8	          19EABF
               8	          19DF3F
               8	          19DE28
               8	          19DE0B
               8	          19C748
               8	          1908E1
               8	          18604D
               8	          17A6EE
               8	          17A0B1
               8	          16A461
               8	          165AE1
               8	          15BCF7
               8	          15AB27
               8	          15A8AA
               8	          15A6FF
               8	          15A363
               8	          15A283
               8	          159213
               8	          158F9A
               8	          15635F
               8	          155E0B
               8	          152CEE
               8	          151C7A
               8	          14C21D
               8	          14B9C8
               8	          14934D
               8	          147D71
               8	          145DD9
               8	          140AE6
               8	          13D2B5
               8	          1397EB
               8	          139785
               8	          13833C
               8	          136700
               8	          134AF7
               8	          1325D9
               8	          12D066
               8	          12B78D
               8	           F577F
               8	           F2E39
               8	           EDFBE
               8	           E61F7
               8	           DE110
               8	           D4FF7
               8	           D3B0F
               8	           CE95D
               8	           CC535
               8	           CBAF0
               8	           C9FDC
               8	           C814A
               8	           C5494
               8	           C4AAB
               8	           BEDAD
               8	           AF32F
               8	           A2B12
               8	           A03F9
               8	           9C105
               8	           9B6BC
               8	           96702
               8	           88EF2
               8	           83EAA
               8	           7FA2A
               8	           7F32A
               8	           7E61C
               8	           6680B
               8	           54AF2
               8	           5067B
               8	           4F7EB
               8	           49262
               8	           45EE3
               8	           44E99
               8	           41596
               8	           3FB7D
               8	           3F516
               8	           3EB15
               8	           3CBDF
               8	           3C686
               8	           3C5CD
               8	           3B861
               8	           321AF
               8	           30C3D
               8	           309A8
               8	           2FB87
               8	           2BF20
               8	           2B8CC
               8	           29C58
               8	           2942C
               8	           29181
               8	           27E72
               8	           27743
               8	           26536
               8	           25A83
               8	           25A69
               8	           25555
               8	           248B9
               8	           2416E
               8	           234AE
               8	           233FA
               8	           22B5D
               8	           22AAF
               8	           210B8
               8	           206CF
               8	           1FFAF
               8	           1F5A2
               8	           1EE86
               8	           1E702
               8	           18066
               8	           16723
               8	           1579D
               8	           1442E
               8	            B989
               8	            A91F
               8	            850F
               8	            3C44
               8	             431
               7	          1A0A21
               7	          1A0298
               7	          19FED7
               7	          19FB03
               7	          19DA9E
               7	          19D628
               7	          19C971
               7	          19879A
               7	          197E49
               7	          195803
               7	          18F3DE
               7	          18E671
               7	          1876FC
               7	          18607F
               7	          17CE97
               7	          179407
               7	          173F82
               7	          168EAE
               7	          16834B
               7	          16792C
               7	          1659E2
               7	          16476C
               7	          164604
               7	          164461
               7	          1642F2
               7	          160DB8
               7	          15E3F7
               7	          15CB9E
               7	          15AEAA
               7	          15AB59
               7	          15A347
               7	          159E25
               7	          159AB9
               7	          159006
               7	          158C77
               7	          156854
               7	          1567AC
               7	          155B53
               7	          1540CC
               7	          14BA28
               7	          149F8C
               7	          149175
               7	          140F0A
               7	          140422
               7	          13EBE5
               7	          13E65B
               7	          13E53C
               7	          13B453
               7	          139429
               7	          13886B
               7	          13861D
               7	          133D4C
               7	          12CF81
               7	          1274CB
               7	          122F22
               7	          11E6AA
               7	          116756
               7	          115365
               7	          10F332
               7	          10BE49
               7	           FFEBE
               7	           F8E72
               7	           F7D4D
               7	           F4DF5
               7	           F4CBA
               7	           F21AD
               7	           E4B1E
               7	           E3E91
               7	           E35B8
               7	           E0F7D
               7	           DE0D2
               7	           DC886
               7	           DC0C6
               7	           DA0FC
               7	           D6E07
               7	           D2B7D
               7	           D2002
               7	           CBD9C
               7	           C9710
               7	           BFDA3
               7	           BACF8
               7	           B991A
               7	           B725C
               7	           B5FE2
               7	           B4186
               7	           AC7DB
               7	           A6D21
               7	           9BB05
               7	           97B6F
               7	           9675E
               7	           96388
               7	           8EA57
               7	           8B59B
               7	           8A22E
               7	           865DD
               7	           7415B
               7	           7153E
               7	           709F0
               7	           6DEB9
               7	           65E35
               7	           621F6
               7	           60AAC
               7	           5BA85
               7	           59F95
               7	           54B18
               7	           54ACE
               7	           4EAE2
               7	           4DAA0
               7	           4C5E0
               7	           4B77B
               7	           4A4A8
               7	           49E15
               7	           40173
               7	           3E49D
               7	           3E130
               7	           3BB86
               7	           3BB1A
               7	           39B3E
               7	           39B22
               7	           32CBC
               7	           3292D
               7	           3282A
               7	           327A4
               7	           2FA3B
               7	           2DC31
               7	           2DAEC
               7	           2CBB2
               7	           2C773
               7	           2BE8E
               7	           2A75F
               7	           29399
               7	           2877F
               7	           28421
               7	           27A20
               7	           270A8
               7	           26E0D
               7	           26BA9
               7	           266B0
               7	           2308C
               7	           22A75
               7	           227D2
               7	           22455
               7	           22213
               7	           1F530
               7	           1F130
               7	           1E60F
               7	           19745
               7	           181EA
               7	           170FE
               7	           15822
               7	           157DA
               7	           13FF2
               7	           13F30
               7	           13B6F
               7	           13A61
               7	           1375D
               7	            D19D
               7	            A8ED
               7	            7F9F
               7	            735D
               7	            5B9F
               7	            1B0E
               7	            16FA
               6	          1A1709
               6	          1A12CA
               6	          1A1247
               6	          1A0479
               6	          19FDE9
               6	          19EFEB
               6	          197C0F
               6	          195E68
               6	          19436E
               6	          19299F
               6	          18AE88
               6	          18869A
               6	          1866B8
               6	          184939
               6	          184644
               6	          1842B6
               6	          183C47
               6	          183A06
               6	          17EB4B
               6	          17E9A3
               6	          17D488
               6	          17AC38
               6	          175441
               6	          16C81A
               6	          16AEA4
               6	          169B8C
               6	          169469
               6	          1684DF
               6	          167C8C
               6	          1679DB
               6	          166C89
               6	          1661C9
               6	          165BE6
               6	          164667
               6	          162A8C
               6	          16270F
               6	          161E0A
               6	          16140D
               6	          16075F
               6	          160744
               6	          16070C
               6	          15F9C2
               6	          15EB46
               6	          15E886
               6	          15D7B9
               6	          15B40A
               6	          15ABEF
               6	          15AA4D
               6	          15A862
               6	          15A6C8
               6	          15A6B0
               6	          1598DF
               6	          158FEE
               6	          158985
               6	          156971
               6	          15658D
               6	          156313
               6	          1562E7
               6	          1561F7
               6	          1561E5
               6	          155CF1
               6	          155B28
               6	          1541C5
               6	          151F40
               6	          14C5A5
               6	          14BD8F
               6	          14B1A4
               6	          145C13
               6	          145831
               6	          140262
               6	          13F4A8
               6	          13F3F6
               6	          13EC61
               6	          13E913
               6	          13E70A
               6	          13E38F
               6	          13DF47
               6	          13DE3B
               6	          13CAA3
               6	          13A160
               6	          139AAF
               6	          139081
               6	          13877B
               6	          1385EF
               6	          136D45
               6	          136BC8
               6	          135E0E
               6	          1359BD
               6	          1333F6
               6	          130681
               6	          12F48D
               6	          11ECEA
               6	          11E65F
               6	          11E0E9
               6	          11D05A
               6	          11B396
               6	          11AB74
               6	          11A4BE
               6	          11238B
               6	          111947
               6	          1063D8
               6	          102A35
               6	          1011D8
               6	           FF945
               6	           FF558
               6	           FD30D
               6	           F73D0
               6	           F4E5C
               6	           F49B7
               6	           F2EB6
               6	           F2B5F
               6	           EF751
               6	           EC1FD
               6	           E9456
               6	           E5F92
               6	           E4631
               6	           E21BD
               6	           E1D33
               6	           E1CD8
               6	           E1BF3
               6	           E11FF
               6	           E04A7
               6	           DC0DD
               6	           D9725
               6	           D8DFF
               6	           D5C3A
               6	           D50EA
               6	           D06C1
               6	           CFEDE
               6	           CF1B1
               6	           CC21C
               6	           CC04A
               6	           CA66B
               6	           CA39F
               6	           C9337
               6	           C88BA
               6	           C8682
               6	           C8169
               6	           C747A
               6	           C22AE
               6	           C0A73
               6	           BFD83
               6	           BFCD2
               6	           BE0C6
               6	           BD1AB
               6	           BAD13
               6	           B8C4A
               6	           B831C
               6	           B40D8
               6	           B3931
               6	           AA3C2
               6	           A6D4C
               6	           A586F
               6	           A563F
               6	           A54B6
               6	           A47AA
               6	           A3EF0
               6	           A3043
               6	           A2701
               6	           9EBD5
               6	           9CACC
               6	           96471
               6	           94F85
               6	           917D1
               6	           909BD
               6	           8FFEB
               6	           8878B
               6	           86E9D
               6	           8686C
               6	           82122
               6	           81CB3
               6	           81737
               6	           810E1
               6	           80235
               6	           7F6F5
               6	           7CF72
               6	           7BD7F
               6	           7B3BE
               6	           7A9F6
               6	           7A988
               6	           7A7BA
               6	           74BFB
               6	           72331
               6	           707ED
               6	           6CD60
               6	           6C171
               6	           69213
               6	           667AB
               6	           6442A
               6	           60160
               6	           5FE9F
               6	           5F55B
               6	           54CE2
               6	           51CD4
               6	           51082
               6	           4F81B
               6	           4CC2E
               6	           4A3D1
               6	           49001
               6	           48E57
               6	           47C0D
               6	           47559
               6	           47394
               6	           43972
               6	           43866
               6	           4228D
               6	           40EE4
               6	           40D0A
               6	           3F920
               6	           3E349
               6	           3CBC7
               6	           38446
               6	           378F6
               6	           37144
               6	           36742
               6	           35E70
               6	           34025
               6	           3343A
               6	           327E6
               6	           32233
               6	           313E1
               6	           31144
               6	           30A28
               6	           30038
               6	           2F31C
               6	           2EA7A
               6	           2D6A0
               6	           2C81E
               6	           2C70E
               6	           2BEAA
               6	           2A9C9
               6	           2A92B
               6	           2A37B
               6	           2A2FD
               6	           29606
               6	           28F0F
               6	           28731
               6	           286BF
               6	           2858B
               6	           27A7A
               6	           2779F
               6	           26C80
               6	           264F2
               6	           25DF7
               6	           25A9D
               6	           2563B
               6	           25290
               6	           251C7
               6	           2502F
               6	           24E39
               6	           24739
               6	           2460D
               6	           245D3
               6	           23EE5
               6	           23E35
               6	           238A8
               6	           22D3A
               6	           22CD2
               6	           229B9
               6	           221F9
               6	           21991
               6	           201EC
               6	           1D102
               6	           17512
               6	           174DE
               6	           16871
               6	           1681D
               6	           159CE
               6	           14D14
               6	           147F0
               6	           146B4
               6	           14574
               6	           13B1F
               6	            B19A
               6	            B13A
               6	            ACD5
               6	            ACBF
               6	            A473
               6	            82DF
               6	            82C7
               6	            6B89
               6	            20BF
               6	             569
               6	             404
               6	             331
               6	             130
               5	          1A0E38
               5	          19FDD1
               5	          19F934
               5	          19F0B0
               5	          19DF93
               5	          19DD8F
               5	          19DD59
               5	          19CDE8
               5	          19B590
               5	          19B20D
               5	          19AD56
               5	          1989D5
               5	          19702A
               5	          1959F7
               5	          195382
               5	          1952EE
               5	          194FB4
               5	          194D11
               5	          194CF9
               5	          193A72
               5	          192CC3
               5	          1926C9
               5	          191ABE
               5	          18F201
               5	          18F08F
               5	          18DE48
               5	          18BFC9
               5	          18A7FF
               5	          18809A
               5	          1875D3
               5	          183CA7
               5	          1836BC
               5	          18238E
               5	          18195A
               5	          180F11
               5	          180D04
               5	          180913
               5	          1803B6
               5	          17F6AC
               5	          17E3AD
               5	          17D13D
               5	          17A868
               5	          1737E9
               5	          16A670
               5	          16A495
               5	          169707
               5	          168E78
               5	          168E47
               5	          16873F
               5	          1681F9
               5	          167F05
               5	          167CE0
               5	          1672F3
               5	          1662F3
               5	          1653F8
               5	          1651DD
               5	          164968
               5	          164932
               5	          164499
               5	          16429E
               5	          164024
               5	          162A18
               5	          1629D1
               5	          16241A
               5	          15FB81
               5	          15E187
               5	          15D9C2
               5	          15D521
               5	          15CEAD
               5	          15C4E8
               5	          15C4D0
               5	          15BB2D
               5	          15B320
               5	          15AFD4
               5	          15AEC4
               5	          15ACE9
               5	          15A399
               5	          15A1A9
               5	          159F53
               5	          159B8F
               5	          159671
               5	          1562A1
               5	          156191
               5	          155D28
               5	          155415
               5	          152FD9
               5	          151BC3
               5	          150FA0
               5	          14F931
               5	          14E5DD
               5	          14E303
               5	          14E272
               5	          14CF57
               5	          14C17F
               5	          14A140
               5	          149B77
               5	          149641
               5	          148852
               5	          147181
               5	          145299
               5	          1441E3
               5	          142033
               5	          141294
               5	          140A1B
               5	          14021A
               5	          1401CC
               5	          13FED3
               5	          13F486
               5	          13DE6C
               5	          13DDF3
               5	          13D356
               5	          13D125
               5	          13D0B6
               5	          13D046
               5	          13A919
               5	          13A8F9
               5	          1395BD
               5	          1379E4
               5	          1331BD
               5	          13285A
               5	          13003E
               5	          12A82E
               5	          129327
               5	          1286C7
               5	          1228AF
               5	          11D27E
               5	          11CFAD
               5	          119BAB
               5	          117428
               5	          11669E
               5	          114CCA
               5	          112731
               5	          112536
               5	          110FB3
               5	          110F2F
               5	          10E92A
               5	          10BAC8
               5	          10AED3
               5	          10A9E0
               5	          10A908
               5	          10A0E1
               5	          1067C5
               5	          10535E
               5	          1050A9
               5	          100D04
               5	          100B6B
               5	           FCC6D
               5	           FC0FA
               5	           FA6E5
               5	           FA0CC
               5	           F76E7
               5	           F73C1
               5	           F6531
               5	           F37DD
               5	           F3291
               5	           F3253
               5	           EE164
               5	           ED769
               5	           EA2C6
               5	           EA2B3
               5	           E9191
               5	           E88CD
               5	           E6F58
               5	           E4F88
               5	           E3E31
               5	           E2867
               5	           E25D4
               5	           E1114
               5	           E0FC9
               5	           E03F7
               5	           DE202
               5	           DD514
               5	           DD2E2
               5	           DA9D4
               5	           D94F8
               5	           D8F95
               5	           D8DE5
               5	           D51F3
               5	           D2B2F
               5	           D12D2
               5	           D1099
               5	           D0FB3
               5	           CE0FF
               5	           CB901
               5	           C9E23
               5	           C9A6E
               5	           C937D
               5	           C820A
               5	           C720A
               5	           C6FD7
               5	           C6C9B
               5	           C5356
               5	           C1689
               5	           BFF8E
               5	           BE974
               5	           BE187
               5	           BD638
               5	           BD594
               5	           BAD37
               5	           B8193
               5	           B6A1E
               5	           B4EFE
               5	           B4309
               5	           B2CAA
               5	           B07C6
               5	           AD039
               5	           AC360
               5	           AC1AF
               5	           ABB6C
               5	           AB344
               5	           AA3FF
               5	           A935E
               5	           A8D12
               5	           A8BAA
               5	           A65A5
               5	           A5FD8
               5	           A3F66
               5	           A3A75
               5	           A3A26
               5	           A353E
               5	           A2C65
               5	           A21C0
               5	           9FDCA
               5	           9EEEC
               5	           9C8C6
               5	           99EB7
               5	           99B0C
               5	           9673E
               5	           96660
               5	           93DD8
               5	           92C44
               5	           92932
               5	           91782
               5	           8E6CF
               5	           8E662
               5	           8D351
               5	           8C2E8
               5	           8826E
               5	           865C6
               5	           85F8E
               5	           81815
               5	           81395
               5	           80F4D
               5	           80E1C
               5	           80B34
               5	           800D0
               5	           7F622
               5	           7F2B8
               5	           7F0EF
               5	           7ED99
               5	           7ED13
               5	           7EB6F
               5	           7E7C2
               5	           7DA96
               5	           7A9B8
               5	           7A9A2
               5	           7A8B4
               5	           7A774
               5	           752E3
               5	           74F15
               5	           74518
               5	           700CF
               5	           6B850
               5	           68601
               5	           64BC1
               5	           62341
               5	           61699
               5	           600DA
               5	           5FEE6
               5	           5AF0A
               5	           5A33D
               5	           59287
               5	           50A17
               5	           4FBB8
               5	           4F8A4
               5	           4F86F
               5	           4DA4A
               5	           4CA1D
               5	           4C4D6
               5	           4C40F
               5	           4BD36
               5	           4B1DE
               5	           4967D
               5	           47D4A
               5	           47040
               5	           457E9
               5	           45183
               5	           440F6
               5	           43696
               5	           432C8
               5	           41684
               5	           414EE
               5	           4097B
               5	           4086B
               5	           406DF
               5	           40624
               5	           3F8EA
               5	           3E781
               5	           3D829
               5	           3CF97
               5	           3C85C
               5	           3C719
               5	           3C656
               5	           3C5B7
               5	           3BB9E
               5	           3B5A9
               5	           3A204
               5	           38BA5
               5	           37D8B
               5	           3730C
               5	           372C2
               5	           37189
               5	           34236
               5	           33FEF
               5	           3340C
               5	           33360
               5	           33240
               5	           32CD2
               5	           32959
               5	           31A53
               5	           309C6
               5	           3075B
               5	           2F966
               5	           2F2E8
               5	           2F169
               5	           2E93C
               5	           2DD41
               5	           2DB24
               5	           2D219
               5	           2CBCD
               5	           2CB80
               5	           2CAF0
               5	           2CA5C
               5	           2CA02
               5	           2C9B0
               5	           2C7D4
               5	           2B6F2
               5	           2B646
               5	           2AEA7
               5	           2A010
               5	           28E5C
               5	           28459
               5	           281B3
               5	           280FB
               5	           27CA2
               5	           279EC
               5	           279D0
               5	           278A3
               5	           27253
               5	           26ED9
               5	           26BDF
               5	           265E6
               5	           26275
               5	           261CD
               5	           26009
               5	           25E7B
               5	           25CB9
               5	           25BA5
               5	           25815
               5	           24F67
               5	           24B0E
               5	           24A44
               5	           24A22
               5	           239E8
               5	           23420
               5	           22C50
               5	           229DD
               5	           22929
               5	           228E9
               5	           22680
               5	           2262C
               5	           2218D
               5	           21A9F
               5	           21761
               5	           205A2
               5	           20542
               5	           1FE08
               5	           1F610
               5	           1E345
               5	           1E0D5
               5	           1DEAC
               5	           1D7D7
               5	           1D551
               5	           1CDAC
               5	           1CB3C
               5	           1C57C
               5	           1C560
               5	           1BF1D
               5	           1AFDE
               5	           1AC4B
               5	           1ABB6
               5	           19705
               5	           181A6
               5	           1817A
               5	           1776E
               5	           1771C
               5	           171DE
               5	           1699F
               5	           1692F
               5	           16672
               5	           161D2
               5	           1583C
               5	           155E1
               5	           1523B
               5	           151E5
               5	           14DA6
               5	           14BB4
               5	           14538
               5	           13E9E
               5	           13BE9
               5	           13A8F
               5	           126F5
               5	           12544
               5	           11C20
               5	            FEC2
               5	            F922
               5	            EEFB
               5	            E1DA
               5	            C5A8
               5	            BED7
               5	            BAA9
               5	            A8B5
               5	            80BB
               5	            46AC
               5	            42DA
               5	            3F5E
               5	            3BF2
               5	            23B3
               5	            187A
               5	             3EA
               5	             347
               5	             22C
               5	             1DC
               4	          1A1CDE
               4	          1A1982
               4	          1A1929
               4	          1A1260
               4	          1A0B7D
               4	          1A04AF
               4	          1A02B2
               4	          19F167
               4	          19F148
               4	          19EF09
               4	          19DF75
               4	          19D355
               4	          19C959
               4	          19C47B
               4	          19B865
               4	          19B5A9
               4	          19B55E
               4	          199DA0
               4	          198E6F
               4	          197DDF
               4	          197B57
               4	          197B41
               4	          19768B
               4	          1967F6
               4	          196522
               4	          1957E7
               4	          1953AE
               4	          194479
               4	          193B09
               4	          191B5A
               4	          191AA0
               4	          19148E
               4	          1913FE
               4	          190D10
               4	          18E70D
               4	          18DBD4
               4	          18CAC1
               4	          18B9FD
               4	          18B1D4
               4	          18B072
               4	          18A7A4
               4	          18A461
               4	          18A35E
               4	          18A2B8
               4	          18923A
               4	          185FB8
               4	          185B99
               4	          184FDD
               4	          184905
               4	          18481B
               4	          183963
               4	          182C8C
               4	          181E16
               4	          181595
               4	          180540
               4	          1801AD
               4	          18018F
               4	          17FF98
               4	          17F7CB
               4	          17F714
               4	          17F2A0
               4	          17E3CD
               4	          17D576
               4	          17C5B7
               4	          17A61B
               4	          179FE7
               4	          17978F
               4	          178D80
               4	          178BE8
               4	          17893C
               4	          17725F
               4	          1764C3
               4	          175CF1
               4	          1758EE
               4	          175754
               4	          172B69
               4	          171E4F
               4	          171B21
               4	          17144A
               4	          170556
               4	          16FEBC
               4	          16F3C0
               4	          16F0BD
               4	          16EFD1
               4	          16EBD5
               4	          16EA09
               4	          16E557
               4	          16DB74
               4	          16C7A0
               4	          16C4DD
               4	          16A5C1
               4	          16A58D
               4	          16A002
               4	          169D6F
               4	          169772
               4	          168E2C
               4	          168A9A
               4	          1681E1
               4	          167D55
               4	          167C73
               4	          167A4F
               4	          1677DD
               4	          167751
               4	          1672BC
               4	          1669EF
               4	          1668AD
               4	          1662CB
               4	          166190
               4	          16607E
               4	          165BAB
               4	          164CE6
               4	          164BE2
               4	          1646F8
               4	          16412E
               4	          163EB3
               4	          163DDF
               4	          163503
               4	          16342D
               4	          162A77
               4	          162841
               4	          1622B4
               4	          161BEC
               4	          161B35
               4	          1619DA
               4	          1611A7
               4	          160DA1
               4	          160AEF
               4	          16020B
               4	          15F83E
               4	          15F3FA
               4	          15EB5B
               4	          15DFC1
               4	          15D3BF
               4	          15CB4A
               4	          15C0F2
               4	          15BEA8
               4	          15BDC4
               4	          15BD59
               4	          15BD1B
               4	          15BC02
               4	          15BBEA
               4	          15BA33
               4	          15B903
               4	          15B89F
               4	          15B33A
               4	          15B290
               4	          15B16D
               4	          15AFEC
               4	          15AD86
               4	          15AD19
               4	          15AD01
               4	          15A9AD
               4	          15A02A
               4	          159E0B
               4	          159CF7
               4	          159B75
               4	          15995F
               4	          1598A7
               4	          157779
               4	          156184
               4	          155E6B
               4	          155E21
               4	          155D7B
               4	          155D63
               4	          155C35
               4	          154042
               4	          153EA4
               4	          153C23
               4	          153023
               4	          152AD8
               4	          151F90
               4	          151F2C
               4	          14E2ED
               4	          14D5A8
               4	          14D519
               4	          14D46B
               4	          14D44C
               4	          14C369
               4	          14B944
               4	          1484FC
               4	          1484E6
               4	          1460F3
               4	          145845
               4	          144FEB
               4	          1444A1
               4	          144241
               4	          143F3F
               4	          1435E6
               4	          14301A
               4	          142D52
               4	          142CF1
               4	          142C84
               4	          14216D
               4	          14130E
               4	          140F40
               4	          140EF1
               4	          14043E
               4	          140172
               4	          13FBF8
               4	          13F95B
               4	          13F398
               4	          13E446
               4	          13E110
               4	          13E0CB
               4	          13D9F2
               4	          13D339
               4	          13D2EC
               4	          13D109
               4	          13CFD8
               4	          13BC93
               4	          13B4B2
               4	          13A7B5
               4	          13A757
               4	          13A612
               4	          139E37
               4	          139C38
               4	          1397BD
               4	          139634
               4	          13960A
               4	          1395F7
               4	          138F8A
               4	          138ED7
               4	          138985
               4	          1388C9
               4	          1382F2
               4	          137743
               4	          136EF6
               4	          136A45
               4	          136718
               4	          1365A0
               4	          136054
               4	          133872
               4	          133777
               4	          132AFF
               4	          130894
               4	          1306A6
               4	          130439
               4	          12FFF8
               4	          12F0A7
               4	          12EB24
               4	          12E0DE
               4	          12D4E1
               4	          12C9F7
               4	          12C1ED
               4	          12B7F2
               4	          12AB2A
               4	          12925C
               4	          1291D2
               4	          125E51
               4	          125925
               4	          125640
               4	          124C10
               4	          1249DA
               4	          12279E
               4	          1220A4
               4	          1214DB
               4	          11F35C
               4	          11F306
               4	          11EEE1
               4	          11EC53
               4	          11E489
               4	          11E39D
               4	          11D9F5
               4	          11B2E0
               4	          119BDA
               4	          11832C
               4	          1177EA
               4	          1172CA
               4	          116FAB
               4	          116D00
               4	          114CE0
               4	          114CBB
               4	          114611
               4	          1138F4
               4	          112ED8
               4	          112DD4
               4	          11284A
               4	          111541
               4	          1114C7
               4	          110E54
               4	          110484
               4	          10FAE4
               4	          10D9E7
               4	          10CF77
               4	          10CB67
               4	          10BF1B
               4	          10BEF3
               4	          10B298
               4	          10982A
               4	          109724
               4	          106D23
               4	          106A37
               4	          106177
               4	          1043E8
               4	          10312F
               4	          102E32
               4	          102182
               4	          101D7D
               4	          101C78
               4	          10110B
               4	          100C90
               4	           FD615
               4	           FD5ED
               4	           FCC89
               4	           FB24B
               4	           FAF2C
               4	           F97F8
               4	           F8A17
               4	           F878B
               4	           F8443
               4	           F8430
               4	           F68B4
               4	           F60B7
               4	           F5833
               4	           F4A73
               4	           F37EE
               4	           F31B7
               4	           F2B0C
               4	           F1FF3
               4	           EF0E6
               4	           EE116
               4	           ED5BA
               4	           ED075
               4	           ECF2F
               4	           EC216
               4	           EBFD3
               4	           EB9BD
               4	           EB5DF
               4	           EAE5C
               4	           EA451
               4	           E9BF4
               4	           E81B3
               4	           E7722
               4	           E7424
               4	           E5E3D
               4	           E4FE9
               4	           E4D45
               4	           E4C7B
               4	           E48F2
               4	           E367A
               4	           E2D9F
               4	           E2A65
               4	           E2A2A
               4	           E28F3
               4	           E1F96
               4	           E1C8C
               4	           E14BD
               4	           E0734
               4	           E06F9
               4	           E0505
               4	           DEC34
               4	           DE849
               4	           DDE06
               4	           DD109
               4	           DD061
               4	           DCCEE
               4	           DC78D
               4	           DBCFE
               4	           DB794
               4	           DAB24
               4	           DA85C
               4	           D9B29
               4	           D8F43
               4	           D8EC7
               4	           D7464
               4	           D6C7D
               4	           D52FB
               4	           D46CF
               4	           D4568
               4	           D3006
               4	           D2938
               4	           D25E1
               4	           D257B
               4	           D0D02
               4	           D0882
               4	           D037D
               4	           CF84D
               4	           CF6FD
               4	           CF274
               4	           CDFAF
               4	           CDC6F
               4	           CD738
               4	           CD18F
               4	           CC512
               4	           CC1A6
               4	           CBD1D
               4	           CB7E4
               4	           CB18C
               4	           C8232
               4	           C5EC8
               4	           C5705
               4	           C4A96
               4	           C3C47
               4	           C3854
               4	           C2083
               4	           C151B
               4	           C1142
               4	           C050D
               4	           C00F5
               4	           BDFA1
               4	           BD25C
               4	           BC727
               4	           BC270
               4	           BC251
               4	           BB89A
               4	           B7D53
               4	           B789E
               4	           B7452
               4	           B6D13
               4	           B6C4B
               4	           B65BE
               4	           B5F1C
               4	           B5C4F
               4	           B57CB
               4	           B4DC6
               4	           B48D0
               4	           B3D0E
               4	           B355E
               4	           B29AF
               4	           B2590
               4	           B24B6
               4	           B12F5
               4	           B107F
               4	           B1028
               4	           B07A4
               4	           B03CF
               4	           B0074
               4	           ADCF5
               4	           ADA70
               4	           AD93E
               4	           ACDE9
               4	           AC540
               4	           A9A5A
               4	           A96E5
               4	           A93B1
               4	           A8E76
               4	           A7F58
               4	           A7F36
               4	           A6C91
               4	           A6982
               4	           A562B
               4	           A4FD5
               4	           A30DF
               4	           A2CF5
               4	           A2859
               4	           A0A82
               4	           A0965
               4	           A05DE
               4	           9FDE3
               4	           9F843
               4	           9D6F0
               4	           9CD12
               4	           9A37D
               4	           9A1BE
               4	           99E54
               4	           991AB
               4	           9868E
               4	           98151
               4	           9639E
               4	           94CD4
               4	           944AF
               4	           9391E
               4	           932F3
               4	           92DB5
               4	           92986
               4	           923B5
               4	           91626
               4	           90921
               4	           8E677
               4	           8D233
               4	           8C77A
               4	           8B7AE
               4	           8AD52
               4	           8A24C
               4	           8A147
               4	           89E07
               4	           89ABE
               4	           897E1
               4	           89286
               4	           890D3
               4	           88ED2
               4	           86F86
               4	           86050
               4	           85DDF
               4	           837D1
               4	           83778
               4	           81B16
               4	           817DB
               4	           8101D
               4	           80EE7
               4	           80BFC
               4	           80194
               4	           7FD9C
               4	           7F1DD
               4	           7F149
               4	           7F065
               4	           7EF75
               4	           7EC73
               4	           7DAD6
               4	           7C227
               4	           7A958
               4	           7A8F2
               4	           79B47
               4	           79B15
               4	           79A3D
               4	           79764
               4	           7940D
               4	           768C2
               4	           74BC9
               4	           73BB0
               4	           71037
               4	           6FE0F
               4	           6DE0F
               4	           6DDA3
               4	           6C68D
               4	           6C19F
               4	           699CC
               4	           68E7F
               4	           686FE
               4	           6811E
               4	           6759D
               4	           6632B
               4	           660AA
               4	           648F1
               4	           63D92
               4	           63C48
               4	           60E14
               4	           607E2
               4	           605DC
               4	           5F5BB
               4	           5EC6D
               4	           5E63A
               4	           5BEAA
               4	           5668D
               4	           54B3A
               4	           54A01
               4	           5479A
               4	           53E0B
               4	           51E9D
               4	           51113
               4	           51067
               4	           4FC44
               4	           4E4C8
               4	           4E413
               4	           4D9FA
               4	           4D18B
               4	           4CDF6
               4	           4C74E
               4	           4C556
               4	           4C2B4
               4	           4AF57
               4	           4A02B
               4	           49D3C
               4	           49976
               4	           491BF
               4	           490E5
               4	           490A7
               4	           49077
               4	           48F6B
               4	           48A12
               4	           484FA
               4	           47D1E
               4	           47CA9
               4	           47C59
               4	           46F8B
               4	           461A3
               4	           45E31
               4	           456C3
               4	           45213
               4	           44EB1
               4	           449CD
               4	           43F18
               4	           43CA0
               4	           4341C
               4	           4331A
               4	           43130
               4	           42B36
               4	           4213D
               4	           41E0A
               4	           41BAA
               4	           4137A
               4	           411BA
               4	           41086
               4	           40F72
               4	           40853
               4	           40631
               4	           4018D
               4	           400F4
               4	           3FFF1
               4	           3FBA7
               4	           3F832
               4	           3ED8C
               4	           3EA45
               4	           3E947
               4	           3E2C7
               4	           3E05E
               4	           3DF90
               4	           3DAFA
               4	           3D97A
               4	           3D77E
               4	           3D6C5
               4	           3CED7
               4	           3CC71
               4	           3C890
               4	           3C583
               4	           3C025
               4	           3BBB2
               4	           3B7BC
               4	           3B74A
               4	           3B591
               4	           3B4B2
               4	           3B262
               4	           3A340
               4	           3A151
               4	           39BB8
               4	           39AC6
               4	           39A65
               4	           37DCA
               4	           3712C
               4	           36AF4
               4	           35E0C
               4	           357C2
               4	           34258
               4	           33C27
               4	           327FE
               4	           32779
               4	           31D3A
               4	           319AE
               4	           3195A
               4	           314B7
               4	           30C07
               4	           304DA
               4	           2F8F1
               4	           2F0E5
               4	           2EE8A
               4	           2EB14
               4	           2EA3E
               4	           2E292
               4	           2DD81
               4	           2DCBF
               4	           2D445
               4	           2D0B8
               4	           2C882
               4	           2C86A
               4	           2C59C
               4	           2C02C
               4	           2BE76
               4	           2BBBC
               4	           2B7DE
               4	           2B62C
               4	           2AF15
               4	           2AD73
               4	           2AC17
               4	           2A445
               4	           29BDE
               4	           29B10
               4	           299CA
               4	           2987C
               4	           294EA
               4	           28EEF
               4	           28A38
               4	           28901
               4	           288C5
               4	           28893
               4	           2874F
               4	           286DD
               4	           28643
               4	           2862B
               4	           27657
               4	           27309
               4	           27277
               4	           2720F
               4	           27183
               4	           26F49
               4	           26B15
               4	           26AAF
               4	           26626
               4	           26512
               4	           26438
               4	           2635B
               4	           25F2B
               4	           25E5B
               4	           25CDF
               4	           25C59
               4	           25895
               4	           256B9
               4	           24ECB
               4	           249BC
               4	           24831
               4	           2443D
               4	           23DAB
               4	           23B8C
               4	           23A38
               4	           2392A
               4	           233DA
               4	           23326
               4	           23240
               4	           22A3D
               4	           224FF
               4	           22499
               4	           223F3
               4	           22365
               4	           222AD
               4	           220E1
               4	           21C25
               4	           218F4
               4	           20FE7
               4	           20AFE
               4	           2095F
               4	           205DB
               4	           1FF49
               4	           1FD4A
               4	           1FA09
               4	           1F3EC
               4	           1F2C8
               4	           1ED24
               4	           1EC98
               4	           1EC7E
               4	           1EBBA
               4	           1E1FB
               4	           1DF49
               4	           1DF13
               4	           1DE0E
               4	           1DD5A
               4	           1DAB6
               4	           1D9AE
               4	           1D77D
               4	           1D6A5
               4	           1D571
               4	           1CDD0
               4	           1C7F1
               4	           1C44F
               4	           1B1EF
               4	           1AF86
               4	           18C78
               4	           18C5E
               4	           184F7
               4	           17D88
               4	           17C40
               4	           17736
               4	           17379
               4	           16ECA
               4	           168FB
               4	           16068
               4	           1600C
               4	           15F7C
               4	           15CFA
               4	           155C1
               4	           152C1
               4	           14BCE
               4	           149E4
               4	           14280
               4	           139AB
               4	           131DC
               4	           1319E
               4	           1309A
               4	           12E20
               4	           12D85
               4	           12D0A
               4	           12863
               4	           12717
               4	           122D4
               4	           1228E
               4	           120D2
               4	           11FA2
               4	           11AD6
               4	           119C0
               4	           11770
               4	            F8EA
               4	            D358
               4	            D32E
               4	            D020
               4	            BBA8
               4	            BB35
               4	            BABD
               4	            B955
               4	            B16A
               4	            B0F5
               4	            AC3F
               4	            ABF2
               4	            A907
               4	            A8D0
               4	            A6F9
               4	            A18D
               4	            9782
               4	            897A
               4	            8771
               4	            859E
               4	            857A
               4	            7731
               4	            737B
[...]
               1	            61D3
               1	            61AF
               1	            6159
               1	            613D
               1	            60F3
               1	            60D9
               1	            60B9
               1	            6099
               1	            605D
               1	            6039
               1	            6017
               1	            5FFB
               1	            5FD9
               1	            5FB9
               1	            5F7F
               1	            5F4B
               1	            5F31
               1	            5F0D
               1	            5EEF
               1	            5ED3
               1	            5EB5
               1	            5E93
               1	            5E79
               1	            5E4B
               1	            5E1F
               1	            5DFC
               1	            5DD3
               1	            5DB7
               1	            5D9B
               1	            5D81
               1	            5D63
               1	            5D49
               1	            5D2D
               1	            5D07
               1	            5CDB
               1	            5CC1
               1	            5C9B
               1	            5C7D
               1	            5C53
               1	            5C0D
               1	            5BE9
               1	            5B5F
               1	            5B43
               1	            5B1F
               1	            5B09
               1	            5AEF
               1	            5AD5
               1	            5ABF
               1	            5AA3
               1	            5A85
               1	            5A6B
               1	            5A45
               1	            5A21
               1	            59C7
               1	            59AD
               1	            5993
               1	            5975
               1	            5955
               1	            592D
               1	            5905
               1	            58C3
               1	            58A9
               1	            5869
               1	            5841
               1	            581B
               1	            57F5
               1	            57D3
               1	            57B3
               1	            577D
               1	            5759
               1	            5737
               1	            5715
               1	            56F5
               1	            56B7
               1	            5693
               1	            5641
               1	            561D
               1	            55F9
               1	            55D5
               1	            55B3
               1	            5589
               1	            5565
               1	            554B
               1	            5519
               1	            54FB
               1	            54C7
               1	            5483
               1	            545F
               1	            5445
               1	            5423
               1	            53DD
               1	            53B7
               1	            538D
               1	            5367
               1	            533F
               1	            5321
               1	            5301
               1	            52E5
               1	            52C7
               1	            52A7
               1	            528D
               1	            526D
               1	            5247
               1	            5201
               1	            51D7
               1	            51B3
               1	            5197
               1	            516D
               1	            513F
               1	            510F
               1	            50E3
               1	            50C5
               1	            505D
               1	            503F
               1	            5029
               1	            5007
               1	            4FE7
               1	            4FC1
               1	            4F99
               1	            4F7F
               1	            4F45
               1	            4F2F
               1	            4F11
               1	            4ED4
               1	            4EB4
               1	            4E96
               1	            4E72
               1	            4E58
               1	            4E44
               1	            4E1E
               1	            4DF4
               1	            4DD8
               1	            4D9A
               1	            4D7A
               1	            4D5C
               1	            4D20
               1	            4CFE
               1	            4CE8
               1	            4CCC
               1	            4CA6
               1	            4C88
               1	            4C6C
               1	            4C54
               1	            4C34
               1	            4C10
               1	            4BE8
               1	            4BBC
               1	            4B88
               1	            4B32
               1	            4B1E
               1	            4B00
               1	            4AE6
               1	            4AC2
               1	            4AA8
               1	            4A60
               1	            4A3C
               1	            4A02
               1	            49E6
               1	            49CC
               1	            49A0
               1	            4972
               1	            494A
               1	            492A
               1	            4904
               1	            48B8
               1	            4896
               1	            4872
               1	            4856
               1	            481C
               1	            47F0
               1	            47C0
               1	            4796
               1	            4754
               1	            4738
               1	            471E
               1	            46FE
               1	            46CA
               1	            468A
               1	            4670
               1	            4650
               1	            462E
               1	            4608
               1	            45DC
               1	            45B0
               1	            4584
               1	            4568
               1	            454A
               1	            4530
               1	            450C
               1	            44EE
               1	            44D4
               1	            4492
               1	            446A
               1	            4448
               1	            4424
               1	            4408
               1	            43E8
               1	            43AE
               1	            436C
               1	            434E
               1	            4326
               1	            4300
               1	            428E
               1	            426C
               1	            424C
               1	            4226
               1	            41E8
               1	            41CC
               1	            4182
               1	            4140
               1	            4126
               1	            4104
               1	            40E0
               1	            40C6
               1	            40AA
               1	            4088
               1	            405C
               1	            403A
               1	            4014
               1	            3FEE
               1	            3FC8
               1	            3F86
               1	            3F32
               1	            3F0C
               1	            3EC6
               1	            3E9E
               1	            3E7A
               1	            3E62
               1	            3E4E
               1	            3E32
               1	            3E0E
               1	            3DEE
               1	            3DCE
               1	            3D7A
               1	            3D5A
               1	            3D2A
               1	            3D04
               1	            3CE4
               1	            3CBE
               1	            3CA0
               1	            3C7E
               1	            3C60
               1	            3C1A
               1	            3BCA
               1	            3BAC
               1	            3B90
               1	            3B70
               1	            3B50
               1	            3B26
               1	            3B0A
               1	            3AF0
               1	            3AAC
               1	            3A86
               1	            3A5E
               1	            3A3A
               1	            3A20
               1	            39FE
               1	            39DE
               1	            39BA
               1	            3994
               1	            3948
               1	            3928
               1	            3908
               1	            38E4
               1	            389C
               1	            387E
               1	            3862
               1	            3842
               1	            3824
               1	            37FC
               1	            37DE
               1	            37B0
               1	            378E
               1	            373E
               1	            3720
               1	            3704
               1	            36E4
               1	            36C6
               1	            36A4
               1	            3687
               1	            3662
               1	            3640
               1	            3624
               1	            35EC
               1	            35D0
               1	            35B2
               1	            3569
               1	            354B
               1	            3525
               1	            34FF
               1	            34DB
               1	            34BD
               1	            349E
               1	            347C
               1	            345E
               1	            3437
               1	            3411
               1	            33F5
               1	            33C4
               1	            33A4
               1	            3384
               1	            3362
               1	            3344
               1	            331C
               1	            32F6
               1	            32CA
               1	            327F
               1	            3261
               1	            323D
               1	            3215
               1	            31F5
               1	            31D7
               1	            31A9
               1	            3187
               1	            3163
               1	            3147
               1	            3103
               1	            30DC
               1	            3090
               1	            3048
               1	            3028
               1	            300C
               1	            2FEE
               1	            2F99
               1	            2F6B
               1	            2F41
               1	            2F15
               1	            2EE9
               1	            2EC6
               1	            2EA4
               1	            2E7E
               1	            2E5A
               1	            2DF7
               1	            2DD9
               1	            2DB7
               1	            2D99
               1	            2D7F
               1	            2D59
               1	            2D2F
               1	            2D15
               1	            2CF5
               1	            2C8A
               1	            2C64
               1	            2C46
               1	            2C26
               1	            2C06
               1	            2BD8
               1	            2BAC
               1	            2B90
               1	            2B72
               1	            2B50
               1	            2B2C
               1	            2B10
               1	            2AF0
               1	            2AA3
               1	            2A85
               1	            2A63
               1	            2A43
               1	            29E6
               1	            29BC
               1	            2996
               1	            2978
               1	            295A
               1	            2935
               1	            2913
               1	            28F3
               1	            28BA
               1	            285A
               1	            27E4
               1	            27C0
               1	            27A0
               1	            277B
               1	            2741
               1	            271D
               1	            26FF
               1	            26D9
               1	            26B9
               1	            268D
               1	            2629
               1	            25C5
               1	            25A2
               1	            257A
               1	            2556
               1	            24DB
               1	            249A
               1	            2478
               1	            2456
               1	            2436
               1	            2416
               1	            23F0
               1	            23D2
               1	            238F
               1	            2371
               1	            2355
               1	            232A
               1	            22E9
               1	            22C0
               1	            224A
               1	            2213
               1	            21E8
               1	            21C4
               1	            219C
               1	            216C
               1	            2142
               1	            20FE
               1	            20DB
               1	            206C
               1	            2050
               1	            2034
               1	            201E
               1	            1FF2
               1	            1F68
               1	            1F3C
               1	            1EF2
               1	            1ED2
               1	            1EB4
               1	            1E92
               1	            1E74
               1	            1E5A
               1	            1E3A
               1	            1E14
               1	            1DF2
               1	            1DC8
               1	            1DB2
               1	            1D8A
               1	            1D76
               1	            1D50
               1	            1D2E
               1	            1D06
               1	            1CC0
               1	            1CA4
               1	            1C80
               1	            1C58
               1	            1C34
               1	            1C14
               1	            1BF8
               1	            1BD6
               1	            1BB8
               1	            1B96
               1	            1B76
               1	            1B2C
               1	            1AF2
               1	            1AD8
               1	            1AB8
               1	            1A90
               1	            1A74
               1	            1A2E
               1	            1A0A
               1	            19D0
               1	            19B4
               1	            1994
               1	            1974
               1	            1952
               1	            1932
               1	            190C
               1	            18EC
               1	            18C6
               1	            184E
               1	            1832
               1	            17E6
               1	            1786
               1	            1738
               1	            171E
               1	            16C2
               1	            16A0
               1	            166A
               1	            1646
               1	            1607
               1	            15E1
               1	            15A9
               1	            1589
               1	            1567
               1	            1547
               1	            1525
               1	            14F9
               1	            14D5
               1	            14AD
               1	            1481
               1	            1449
               1	            1421
               1	            13FF
               1	            13E3
               1	            13C5
               1	            13A5
               1	            1389
               1	            134B
               1	            132B
               1	            12F5
               1	            12DD
               1	            12C3
               1	            12A7
               1	            1281
               1	            1265
               1	            1245
               1	            1219
               1	            11F1
               1	            11C1
               1	            1195
               1	            116F
               1	            1149
               1	            111F
               1	            10D9
               1	            108D
               1	            1071
               1	            1049
               1	            1015
               1	             FF9
               1	             FCF
               1	             F99
               1	             F7D
               1	             F5F
               1	             F3F
               1	             F1F
               1	             F01
               1	             EE5
               1	             EC1
               1	             E85
               1	             E5D
               1	             E3B
               1	             E17
               1	             DF5
               1	             DD7
               1	             D69
               1	             D43
               1	             CFB
               1	             C7B
               1	             C57
               1	             C43
               1	             C0F
               1	             BC3
               1	             B79
               1	             B5B
               1	             B35
               1	             B1D
               1	             ADD
               1	             A77
               1	             A55
               1	             A3B
               1	             A15
               1	             9EF
               1	             9C5
               1	             99F
               1	             975
               1	             94F
               1	             92D
               1	             8DB
               1	             8BF
               1	             8A3
               1	             87D
               1	             855
               1	             815
               1	             7F3
               1	             7D3
               1	             7B5
               1	             795
               1	             77B
               1	             757
               1	             73B
               1	             70F
               1	             6EB
               1	             6C7
               1	             69F
               1	             677
               1	             651
               1	             5FD
               1	             5DF
               1	             5BD
               1	             59E
               1	             549
               1	             52B
               1	             50D
               1	             4D1
               1	             4B5
               1	             45E
               1	             3B1
               1	             37D
               1	             2F7
               1	             29B
               1	             27F
               1	             174
               1	              E2
               1	              CA
               1	              AA
               1	              72
               1	              56
               1	              36
               1	              18
               1	               0
