             1A5	           4ED22
              7C	           85614
              72	          3048B0
              5F	           B9E60
              5C	           B688C
              57	          3162B1
              4E	          31D1E7
              4C	           A593A
              48	           35B94
              39	          30A706
              33	          31D239
              30	          35236D
              2F	           8AF33
              27	          37C7C2
              26	          37C376
              23	          411576
              21	           4EEC2
              1D	           2241A
              1C	          313655
              1B	          3005D5
              1A	           9F5AC
              17	               0
              15	           4B6F0
              14	          33526F
              13	          41674D
              13	          38821C
              12	          1D76DB
              12	          1624AE
              12	           97873
              12	           4DC78
              11	          398081
              11	          30EF17
              11	           D556B
              11	           92327
              10	          37C394
              10	          3748EB
              10	          36CA4D
              10	          3461AB
              10	          165986
              10	           4EEA7
              10	           2F23E
               F	          4040FD
               F	          40094E
               F	          3D73C5
               F	          3B5F64
               F	          36FC14
               F	          366809
               F	          35FF7E
               F	          3398FD
               F	          322C7C
               F	          31BCC5
               F	          2760C7
               F	          26E1D6
               F	          26E171
               F	          268E27
               F	          234848
               F	          2324FF
               F	          22FE0A
               F	          2005ED
               F	          1F6EA2
               F	          1EBF73
               F	          1DA1F4
               F	          1CC93E
               F	          132E7F
               F	           9C2A5
               F	           8939F
               F	           86454
               F	           56F1D
               F	           51A3C
               F	           27DE0
               F	           21924
               D	          36D038
               D	          3482EB
               D	          1BE553
               D	           4CBAF
               C	          374E2A
               C	           B1973
               C	           900C7
               C	           4968C
               B	          3971DF
               B	          374A3B
               B	          334535
               B	          30D431
               B	          2F6839
               B	          2A47EA
               B	          2911F7
               A	          32C14C
               A	          31B333
               A	          319438
               A	          2DB1ED
               A	          2803E9
               A	          27A434
               A	          19587E
               A	          10079E
               A	           EC428
               A	           EB7C9
               A	           6B660
               9	          41558A
               9	          4008E5
               9	          3DC67B
               9	          390DF8
               9	          36CE05
               9	          35F7B0
               9	          33C7B4
               9	          3358DE
               9	          324B4A
               9	          2C9D5A
               9	          243C2E
               9	          21E004
               9	          17BC14
               9	          169E30
               9	          169C4C
               9	          10DD31
               9	          1028BA
               9	           BE668
               9	           787E4
               9	           4B47B
               9	           326A3
               9	           28F7B
               8	          3CE7D1
               8	          37C7A9
               8	          329409
               8	          31D4EC
               8	          229BB4
               8	          1EB248
               8	          1DF038
               8	          138444
               8	          10CFBD
               8	          10CFA7
               8	           D8D5D
               8	           D55C8
               8	           56B95
               8	           4EE6D
               8	           4AA61
               8	           2BABD
               7	          3FCA93
               7	          37C7DC
               7	          36CEFC
               7	          357829
               7	          333370
               7	          302141
               7	          2EBE30
               7	          2E9958
               7	          2E06AE
               7	          2C580A
               7	          2BEF8B
               7	          2BDE9F
               7	          2061AF
               7	           E1126
               7	           D585C
               7	           91762
               7	           7D33D
               7	           6C932
               7	           36652
               7	           35C04
               7	            3320
               6	          418F65
               6	          418014
               6	          4025CF
               6	          3DEFBA
               6	          3B8216
               6	          390DBC
               6	          3881CA
               6	          374A1C
               6	          3591BE
               6	          34AAED
               6	          33EFA2
               6	          339DAF
               6	          335E1B
               6	          30CB92
               6	          2F7601
               6	          2D2C95
               6	          2C1AA3
               6	          2BFCC0
               6	          2BB9D8
               6	          2426B1
               6	          226EB2
               6	          226169
               6	          20E3AA
               6	          1E4189
               6	          1A1796
               6	          18C29E
               6	          162494
               6	          14940E
               6	           FDEAB
               6	           FA8D7
               6	           D6B12
               6	           A4FFF
               6	           55627
               6	           5515E
               6	           539DD
               6	           36153
               5	          40DF4F
               5	          405AEC
               5	          404E08
               5	          3E7C5A
               5	          3D047B
               5	          3CDF2B
               5	          3C5FCA
               5	          3C30B0
               5	          3B80CC
               5	          352A08
               5	          349CD7
               5	          33618F
               5	          31BED7
               5	          2F29A0
               5	          2E29EC
               5	          2CEEFC
               5	          2CC2E6
               5	          2C0DBE
               5	          2BB8EE
               5	          2B3193
               5	          29DF45
               5	          2905BB
               5	          28E7FF
               5	          27E6B0
               5	          2621F8
               5	          25EA2F
               5	          25387F
               5	          20D353
               5	          1F4F1F
               5	          1F4E87
               5	          1E225E
               5	          1DB759
               5	          195440
               5	          16977D
               5	          15A59B
               5	          138459
               5	          120805
               5	           F6BD2
               5	           F515E
               5	           D1A37
               5	           D0FB3
               5	           CE9D9
               5	           9C4E2
               5	           8AFD1
               5	           89E08
               5	           58D34
               5	           50EB8
               5	           4FA65
               5	           4EDE9
               5	           35C32
               5	           338CA
               5	           251A3
               4	          414567
               4	          413533
               4	          411B31
               4	          410FEE
               4	          40EF1D
               4	          40DCEF
               4	          409E65
               4	          4086A0
               4	          404AB3
               4	          3FD449
               4	          3FC812
               4	          3F4C97
               4	          3E6D9E
               4	          3E5868
               4	          3DDEB3
               4	          3DADB2
               4	          3D6EEB
               4	          3C8D04
               4	          3B8DFC
               4	          3B2EBE
               4	          3A7D49
               4	          3A0D03
               4	          390F23
               4	          38AC48
               4	          38936F
               4	          38903A
               4	          37E795
               4	          37CBAD
               4	          37C854
               4	          37C34B
               4	          374E02
               4	          374A95
               4	          3746A5
               4	          3704D4
               4	          36D01E
               4	          3671FE
               4	          365757
               4	          362714
               4	          35B7CD
               4	          35B52D
               4	          352D43
               4	          3528AB
               4	          352576
               4	          34D984
               4	          3459B1
               4	          33F24C
               4	          33A1DE
               4	          339131
               4	          337CED
               4	          334500
               4	          331F32
               4	          32DFBB
               4	          329917
               4	          325E13
               4	          3048C3
               4	          2FE011
               4	          2FCA66
               4	          2F49DC
               4	          2F3023
               4	          2F296E
               4	          2EA0A1
               4	          2E4D76
               4	          2E1838
               4	          2E072C
               4	          2DCFCB
               4	          2D6F41
               4	          2D49F0
               4	          2D371F
               4	          2CF13D
               4	          2CEF1D
               4	          2C46B5
               4	          2BEC79
               4	          2BE960
               4	          2B9FBE
               4	          2B24C0
               4	          2AD6D1
               4	          2ACD78
               4	          2AA054
               4	          2A9692
               4	          2A62C5
               4	          29C4BF
               4	          2982AB
               4	          295405
               4	          28D720
               4	          288A11
               4	          27CE19
               4	          27B44A
               4	          2754C1
               4	          270DD1
               4	          269646
               4	          2671B9
               4	          25EA65
               4	          259D6A
               4	          259AB4
               4	          2555F8
               4	          24CCD0
               4	          247465
               4	          242669
               4	          23FAF2
               4	          222955
               4	          20E26F
               4	          20009E
               4	          1EB289
               4	          1E312D
               4	          1A77E4
               4	          1A6F61
               4	          1A2DAC
               4	          193DFA
               4	          16E1F0
               4	          169E14
               4	          167CED
               4	          150DE2
               4	          141CFA
               4	          140652
               4	          131BBD
               4	          13079B
               4	          12BF6A
               4	          12A9AE
               4	          11155A
               4	          10DD00
               4	          10713A
               4	           F92B0
               4	           F702C
               4	           F6B72
               4	           EB823
               4	           D833B
               4	           D74B2
               4	           D6CF6
               4	           D2239
               4	           D0FE1
               4	           CD9A8
               4	           CD682
               4	           C9FD6
               4	           B9CB9
               4	           A5D3F
               4	           924A1
               4	           80FB2
               4	           7C2B3
               4	           58400
               4	           5698F
               4	           561C1
               4	           55130
               4	           53F24
               4	           53C85
               4	           53666
               4	           52ACD
               4	           4F8D7
               4	           4F838
               4	           4F30D
               4	           4EE89
               4	           428D7
               4	           3AAE6
               4	           36067
               4	           35BD8
               4	           327B6
               4	            7279
               4	            5939
               3	          4173FB
               3	          412AE0
               3	          412658
               3	          408E47
               3	          4062DA
               3	          404DD9
               3	          40143E
               3	          3FB6D4
               3	          3F9523
               3	          3F78B5
               3	          3F3F32
               3	          3F06AE
               3	          3ED090
               3	          3E84A4
               3	          3E4508
               3	          3E2C6E
               3	          3DA3D6
               3	          3D9B0A
               3	          3D7CC0
               3	          3D6F02
               3	          3D6ED9
               3	          3D607F
               3	          3D283D
               3	          3CF82D
               3	          3CC94C
               3	          3CB5F6
               3	          3CAB27
               3	          3CAB0F
               3	          3C4472
               3	          3BCF7D
               3	          3B5896
               3	          3AE625
               3	          3ABBD6
               3	          3A83CC
               3	          3A7D2C
               3	          3A627C
               3	          39ED56
               3	          39B8F5
               3	          39A79C
               3	          39A5DC
               3	          399C49
               3	          394148
               3	          390CDD
               3	          38DA82
               3	          38A302
               3	          3881E6
               3	          387BAA
               3	          386511
               3	          3826BF
               3	          380358
               3	          37DDA8
               3	          37CAFB
               3	          37BEFB
               3	          37BEBE
               3	          37BC52
               3	          377596
               3	          3764E4
               3	          375FB6
               3	          374A57
               3	          37480A
               3	          36F6CA
               3	          3677F8
               3	          367286
               3	          3628D1
               3	          35FC24
               3	          358DB2
               3	          35889D
               3	          3577CB
               3	          352EC4
               3	          35237F
               3	          34FAAF
               3	          34EAA9
               3	          34D96F
               3	          345B18
               3	          340427
               3	          33D443
               3	          33C84C
               3	          3391D1
               3	          339187
               3	          33916A
               3	          335C05
               3	          32603B
               3	          31D52E
               3	          319490
               3	          30F893
               3	          30E9FB
               3	          30A846
               3	          3066EA
               3	          30159C
               3	          2FE301
               3	          2FE2D2
               3	          2FCB68
               3	          2FBCA4
               3	          2FB45C
               3	          2FAD9A
               3	          2F8B83
               3	          2F63AF
               3	          2F2607
               3	          2F25DC
               3	          2EFC10
               3	          2EEBE9
               3	          2EDCEB
               3	          2EBBB1
               3	          2EB377
               3	          2EB136
               3	          2EA784
               3	          2E8CBA
               3	          2E68F2
               3	          2E461B
               3	          2E2697
               3	          2E204B
               3	          2DCAC6
               3	          2DCA42
               3	          2DB3DC
               3	          2D70A7
               3	          2D6F13
               3	          2D6759
               3	          2D313F
               3	          2D0B8C
               3	          2CF1DB
               3	          2CD245
               3	          2CACB4
               3	          2C8615
               3	          2C7E43
               3	          2C5ED0
               3	          2C4D74
               3	          2C2487
               3	          2BF97B
               3	          2BEEFF
               3	          2BD8F8
               3	          2BD1BE
               3	          2BC035
               3	          2BA8F6
               3	          2B9FD9
               3	          2B9DFC
               3	          2B96F2
               3	          2B8578
               3	          2B7A4D
               3	          2B799F
               3	          2B68DC
               3	          2B66BC
               3	          2B4EF0
               3	          2B3AAC
               3	          2B320F
               3	          2AFCEF
               3	          2AEC58
               3	          2AC51D
               3	          2ABACC
               3	          2A9F25
               3	          2A7C1D
               3	          2A674D
               3	          2A3BEC
               3	          2A243E
               3	          2A17CB
               3	          2A04E0
               3	          29DD7D
               3	          29DD5E
               3	          29DD37
               3	          29C21B
               3	          293371
               3	          290827
               3	          28FEF8
               3	          28FE72
               3	          28ED5C
               3	          28ED18
               3	          289BA3
               3	          2895B0
               3	          28836E
               3	          286B16
               3	          285DE9
               3	          28486A
               3	          284047
               3	          2824E3
               3	          280B7F
               3	          280846
               3	          27D5D4
               3	          27D02A
               3	          27AB80
               3	          2795AC
               3	          272A52
               3	          268298
               3	          266BBE
               3	          25D757
               3	          259EA7
               3	          257E42
               3	          257B96
               3	          25560D
               3	          25450B
               3	          253C7A
               3	          253B13
               3	          25029D
               3	          24ED78
               3	          24A653
               3	          2496F3
               3	          249526
               3	          24760D
               3	          24759A
               3	          246171
               3	          242CD3
               3	          242631
               3	          241F32
               3	          23D1D9
               3	          23B3FC
               3	          239573
               3	          2378AE
               3	          237676
               3	          2369DD
               3	          23641C
               3	          232DE4
               3	          231B5D
               3	          23085A
               3	          22D6C3
               3	          22C42C
               3	          22A34B
               3	          22A067
               3	          22707A
               3	          2229E9
               3	          21769D
               3	          214F93
               3	          212EBA
               3	          2123F0
               3	          20DBC3
               3	          1FED53
               3	          1FDC6C
               3	          1FD0CD
               3	          1FC647
               3	          1FBDDB
               3	          1F61C3
               3	          1F5ADF
               3	          1F4ED3
               3	          1F3851
               3	          1F12BB
               3	          1F0AB7
               3	          1EC792
               3	          1E9934
               3	          1E682F
               3	          1E2280
               3	          1E187B
               3	          1E1238
               3	          1E0FCD
               3	          1E0B6B
               3	          1E0849
               3	          1DD557
               3	          1DD265
               3	          1DD0F3
               3	          1DBAB5
               3	          1D5C4F
               3	          1CD8F2
               3	          1CC356
               3	          1C9142
               3	          1C80F3
               3	          1C7B43
               3	          1C5B7A
               3	          1C2F0A
               3	          1BBF46
               3	          1BB1E6
               3	          1B1535
               3	          1B091F
               3	          1A5D53
               3	          1A4B98
               3	          19E1A1
               3	          19CBA8
               3	          19766F
               3	          19572D
               3	          194D40
               3	          18F4D7
               3	          188DD3
               3	          16E127
               3	          16A457
               3	          169E90
               3	          169C37
               3	          167FBB
               3	          167F9B
               3	          164F34
               3	          16270B
               3	          16236A
               3	          15D584
               3	          157782
               3	          15237F
               3	          14E716
               3	          14BECE
               3	          140C5B
               3	          13CFCE
               3	          13B9C0
               3	          136C3F
               3	          13424D
               3	          12DDF3
               3	          12AD6C
               3	          12A60E
               3	          126CE9
               3	          12115D
               3	          11F0C0
               3	          11CC38
               3	          1147D8
               3	          10FAE3
               3	          10D2F4
               3	          10C7CD
               3	          10B6A2
               3	           FE9EC
               3	           FA26A
               3	           F9E48
               3	           F6C1F
               3	           F62AA
               3	           F4499
               3	           F4144
               3	           F08E2
               3	           ECB60
               3	           E4927
               3	           E48F7
               3	           E4869
               3	           E453B
               3	           D8DC5
               3	           D8429
               3	           D836F
               3	           D7E4B
               3	           D7714
               3	           D7482
               3	           D7220
               3	           D5EF6
               3	           D50E5
               3	           D311B
               3	           D1391
               3	           D0B91
               3	           CED74
               3	           CE687
               3	           CE3B3
               3	           CDFEE
               3	           CD5A5
               3	           CD555
               3	           CD53B
               3	           C5BB2
               3	           C4B7E
               3	           C2161
               3	           C1C60
               3	           C1266
               3	           BEBAC
               3	           B9E72
               3	           B8BF9
               3	           B68B8
               3	           B15D1
               3	           AFFAA
               3	           AA710
               3	           A7972
               3	           A2F9E
               3	           9F76F
               3	           9D6C4
               3	           9C903
               3	           9792D
               3	           8D5D9
               3	           89E1F
               3	           886D5
               3	           8826E
               3	           86422
               3	           85665
               3	           7FA97
               3	           7F7AB
               3	           7EA3F
               3	           7DB83
               3	           7DAB1
               3	           7D3C4
               3	           79194
               3	           76B8C
               3	           70590
               3	           6C419
               3	           6BF97
               3	           68F31
               3	           657AA
               3	           64D20
               3	           63D92
               3	           5BD4D
               3	           58E98
               3	           578FF
               3	           575E9
               3	           568B8
               3	           56764
               3	           5662C
               3	           5649B
               3	           54216
               3	           53C5D
               3	           52399
               3	           50FF0
               3	           50175
               3	           4FBA3
               3	           4F892
               3	           4F7D6
               3	           4F6DA
               3	           4F2E9
               3	           4EF7D
               3	           4EEFB
               3	           4E06F
               3	           4B742
               3	           4AF01
               3	           490E0
               3	           45E27
               3	           4291C
               3	           41ABC
               3	           40562
               3	           3F0D7
               3	           3EF17
               3	           3B2EA
               3	           3ABDB
               3	           39E87
               3	           36670
               3	           3598E
               3	           329B4
               3	           314C4
               3	           311AE
               3	           30D7F
               3	           2E3E9
               3	           2DB72
               3	           2D2C9
               3	           2C377
               3	           2280E
               3	           19342
               3	           17618
               3	           172E6
               3	            E86E
               3	            835D
               3	            5D95
               3	            5969
               3	            2251
               3	             B72
               2	          4190A1
               2	          418788
               2	          417AC3
               2	          415A3A
               2	          41593F
               2	          413A9E
               2	          413546
               2	          4134F7
               2	          413036
               2	          4115AA
               2	          41158C
               2	          40FF63
               2	          40E951
               2	          40E822
               2	          40E343
               2	          40E134
               2	          40CFAD
               2	          40C376
               2	          40B4CF
               2	          40AD11
               2	          40A8E1
               2	          4092E5
               2	          409088
               2	          40901A
               2	          408EFE
               2	          408E2E
               2	          407C15
               2	          407AD5
               2	          406EC4
               2	          406020
               2	          405B05
               2	          405AAE
               2	          405A72
               2	          40519B
               2	          404EDA
               2	          404E22
               2	          404B83
               2	          4044A3
               2	          403364
               2	          402F57
               2	          402EB7
               2	          401EB4
               2	          401C40
               2	          401B86
               2	          401841
               2	          400857
               2	          3FF0F2
               2	          3FEFB8
               2	          3FEB57
               2	          3FDA05
               2	          3FD59E
               2	          3FCD39
               2	          3FC87B
               2	          3FC5D9
               2	          3FC2DE
               2	          3FB95D
               2	          3FB725
               2	          3FA238
               2	          3F9F2D
               2	          3F98E7
               2	          3F9406
               2	          3F8E50
               2	          3F89D0
               2	          3F8373
               2	          3F82E2
               2	          3F81FA
               2	          3F7D12
               2	          3F7B41
               2	          3F7975
               2	          3F6DE4
               2	          3F6BDE
               2	          3F6953
               2	          3F6910
               2	          3F609C
               2	          3F5F32
               2	          3F5929
               2	          3F5818
               2	          3F5410
               2	          3F46CB
               2	          3F32FE
               2	          3F2AFA
               2	          3F1A51
               2	          3F13ED
               2	          3F0897
               2	          3EF95B
               2	          3EF52D
               2	          3EDA16
               2	          3ECEA6
               2	          3ECE5B
               2	          3ECB1C
               2	          3EC5F2
               2	          3EB0EA
               2	          3EAC44
               2	          3E9C54
               2	          3E909E
               2	          3E7C88
               2	          3E74F5
               2	          3E6A90
               2	          3E5A97
               2	          3E5890
               2	          3E584B
               2	          3E5201
               2	          3E4759
               2	          3E4543
               2	          3E2D7D
               2	          3E2C82
               2	          3E2AA2
               2	          3E25D1
               2	          3E196F
               2	          3E1709
               2	          3E0FB8
               2	          3E0D60
               2	          3DF7E9
               2	          3DF3FA
               2	          3DF00F
               2	          3DEF5A
               2	          3DEF1F
               2	          3DE734
               2	          3DE0E5
               2	          3DDF24
               2	          3DD63B
               2	          3DBB41
               2	          3DA073
               2	          3D9F34
               2	          3D9AEF
               2	          3D9883
               2	          3D93A5
               2	          3D92EC
               2	          3D86B1
               2	          3D84EC
               2	          3D7C95
               2	          3D6FE7
               2	          3D6F5B
               2	          3D643A
               2	          3D6114
               2	          3D4EFF
               2	          3D4339
               2	          3D16BB
               2	          3D0B50
               2	          3D07E8
               2	          3D070F
               2	          3D03FA
               2	          3CF862
               2	          3CF69C
               2	          3CF237
               2	          3CF201
               2	          3CF12D
               2	          3CF069
               2	          3CE82C
               2	          3CE7EE
               2	          3CC56C
               2	          3CAF6B
               2	          3C8F67
               2	          3C8E85
               2	          3C8734
               2	          3C7EAD
               2	          3C7B5A
               2	          3C760B
               2	          3C69AA
               2	          3C641D
               2	          3C5EE3
               2	          3C570C
               2	          3C4A77
               2	          3C45D0
               2	          3C41FF
               2	          3C3DF9
               2	          3C318C
               2	          3C2D00
               2	          3C2AF4
               2	          3C13BF
               2	          3C1033
               2	          3C0FB9
               2	          3BF7AE
               2	          3BF2EA
               2	          3BEFD8
               2	          3BD665
               2	          3BCA61
               2	          3BCA24
               2	          3BC92B
               2	          3B9394
               2	          3B85A6
               2	          3B800F
               2	          3B7F85
               2	          3B7F3C
               2	          3B7F01
               2	          3B7CAB
               2	          3B6CC7
               2	          3B6C40
               2	          3B6929
               2	          3B5149
               2	          3B4A33
               2	          3B3B23
               2	          3B3A96
               2	          3B2460
               2	          3B14A2
               2	          3B1271
               2	          3B0E27
               2	          3AF4C8
               2	          3AE46E
               2	          3ADF0D
               2	          3AD2FC
               2	          3AD103
               2	          3ACFB4
               2	          3ACC84
               2	          3AAFEB
               2	          3AAEB4
               2	          3A8F9E
               2	          3A7989
               2	          3A7495
               2	          3A6D25
               2	          3A66AB
               2	          3A6678
               2	          3A5FEB
               2	          3A4CCC
               2	          3A4A29
               2	          3A467C
               2	          3A45B9
               2	          3A30A9
               2	          3A2AFF
               2	          3A2845
               2	          3A2807
               2	          3A1F45
               2	          3A1407
               2	          3A0AE7
               2	          3A0853
               2	          3A0213
               2	          39FBE6
               2	          39FA03
               2	          39F865
               2	          39F737
               2	          39F671
               2	          39F444
               2	          39F2FC
               2	          39E48C
               2	          39E383
               2	          39D736
               2	          39C8C7
               2	          39C6CA
               2	          39A923
               2	          39A841
               2	          39A040
               2	          399EFA
               2	          3995E1
               2	          398882
               2	          3987C1
               2	          398571
               2	          3980E6
               2	          39754B
               2	          3974B0
               2	          395E8D
               2	          3953D5
               2	          394359
               2	          39433D
               2	          394259
               2	          39415D
               2	          393E89
               2	          393CA1
               2	          3939D9
               2	          393666
               2	          393362
               2	          392B55
               2	          391F8D
               2	          391B10
               2	          391A10
               2	          38F69E
               2	          38F5E4
               2	          38F1C8
               2	          38F0FD
               2	          38E6B7
               2	          38E401
               2	          38E3D4
               2	          38E176
               2	          38E07D
               2	          38DB6A
               2	          38DAFE
               2	          38D611
               2	          38CE48
               2	          38CC3F
               2	          38C1BF
               2	          38BA20
               2	          38B5D3
               2	          38B529
               2	          38AE40
               2	          38AD4A
               2	          38AB78
               2	          38A546
               2	          38A364
               2	          389A4D
               2	          389831
               2	          3890FD
               2	          389088
               2	          388FEA
               2	          388F6D
               2	          38826B
               2	          38824F
               2	          388235
               2	          388204
               2	          3869EB
               2	          3861E7
               2	          385E4D
               2	          384EC0
               2	          382E92
               2	          382285
               2	          3814CD
               2	          380CF1
               2	          380B32
               2	          380189
               2	          37FB13
               2	          37F97B
               2	          37EF8A
               2	          37EA8C
               2	          37E630
               2	          37D7DB
               2	          37D1F7
               2	          37CF89
               2	          37CE3F
               2	          37CD67
               2	          37C943
               2	          37C721
               2	          37C473
               2	          37C3DB
               2	          37C107
               2	          37BE30
               2	          37B577
               2	          37ADC2
               2	          3796A2
               2	          37851A
               2	          377219
               2	          37643A
               2	          374CB2
               2	          3747A7
               2	          37347D
               2	          373372
               2	          372E97
               2	          3724A9
               2	          37247C
               2	          370F13
               2	          3709C2
               2	          3704B3
               2	          37012B
               2	          36FE43
               2	          36DD23
               2	          36D63D
               2	          36D12D
               2	          36D06B
               2	          36D053
               2	          36C7D7
               2	          36C747
               2	          36C6B2
               2	          36B7AE
               2	          36A9FB
               2	          36A904
               2	          369C95
               2	          369AF8
               2	          368F08
               2	          36818A
               2	          367AFD
               2	          3672E2
               2	          3670C2
               2	          366E8A
               2	          3664EE
               2	          3659A7
               2	          36590A
               2	          3654B9
               2	          3653D4
               2	          365333
               2	          364FF4
               2	          364CB2
               2	          364818
               2	          3644C6
               2	          36449B
               2	          364433
               2	          364398
               2	          363921
               2	          36389B
               2	          363855
               2	          363196
               2	          362B55
               2	          362AE0
               2	          3629F9
               2	          361F0E
               2	          361E74
               2	          361561
               2	          360678
               2	          35C1E8
               2	          35B9BF
               2	          35B7FB
               2	          35AECB
               2	          35AE6F
               2	          35ADA1
               2	          35AC49
               2	          359B69
               2	          35957F
               2	          358CA6
               2	          358901
               2	          357FF4
               2	          357D25
               2	          357C09
               2	          3577FC
               2	          356736
               2	          3562B0
               2	          355D57
               2	          355D1D
               2	          355C73
               2	          355C3D
               2	          3553BD
               2	          353131
               2	          352CCE
               2	          352632
               2	          3525EE
               2	          352214
               2	          3519F2
               2	          350E2A
               2	          350DBD
               2	          34FAFD
               2	          34F41B
               2	          34EDE3
               2	          34ED74
               2	          34E2BF
               2	          34DB7D
               2	          34CD0D
               2	          34C5F7
               2	          34BC0D
               2	          34B89D
               2	          34A723
               2	          349BEB
               2	          348A63
               2	          3489F3
               2	          3487CE
               2	          348793
               2	          348463
               2	          347F26
               2	          346EA9
               2	          344B73
               2	          342DA2
               2	          3420B0
               2	          341EC0
               2	          341532
               2	          3413D8
               2	          3408A2
               2	          340336
               2	          3402AC
               2	          33F71F
               2	          33D9CA
               2	          33D99D
               2	          33D589
               2	          33D519
               2	          33D1CD
               2	          33C42F
               2	          33BCFE
               2	          33BC0B
               2	          33B939
               2	          33A236
               2	          33A20B
               2	          3397CE
               2	          3393B8
               2	          339396
               2	          3392C7
               2	          338CD6
               2	          337F1A
               2	          337689
               2	          33498F
               2	          334515
               2	          334367
               2	          3338EA
               2	          33361F
               2	          331979
               2	          32FAC7
               2	          32E542
               2	          32E2DF
               2	          32E18B
               2	          32E0DC
               2	          32D9FB
               2	          32D7E2
               2	          32D2A7
               2	          32CA26
               2	          32C8AB
               2	          32C58C
               2	          32B6A4
               2	          32993E
               2	          329675
               2	          3281AF
               2	          32812A
               2	          327EB6
               2	          32760B
               2	          32651A
               2	          325F99
               2	          325DAE
               2	          325475
               2	          324B7D
               2	          32477E
               2	          3234C6
               2	          322D85
               2	          322854
               2	          322135
               2	          321F18
               2	          321E8A
               2	          3218AF
               2	          320B96
               2	          320456
               2	          31F2D5
               2	          31EE99
               2	          31EC98
               2	          31E135
               2	          31D9B4
               2	          31CCF6
               2	          31C59A
               2	          31BFBF
               2	          31BA0E
               2	          31AEAB
               2	          31A2CD
               2	          31A0D8
               2	          319EC9
               2	          319A00
               2	          3192BB
               2	          3171EB
               2	          316EA7
               2	          316798
               2	          316633
               2	          3165A2
               2	          316351
               2	          3162DD
               2	          31603F
               2	          3140AB
               2	          31307C
               2	          310F00
               2	          30F0EC
               2	          30EE24
               2	          30EA73
               2	          30E47A
               2	          30D4CB
               2	          30D068
               2	          30CD43
               2	          30CBE8
               2	          30C886
               2	          30C79B
               2	          30C4CA
               2	          30C39E
               2	          30BBD8
               2	          30BB5B
               2	          30B50F
               2	          30B0ED
               2	          30AE3F
               2	          30AB73
               2	          30A97C
               2	          30A959
               2	          30A820
               2	          30A772
               2	          309F83
               2	          304FF7
               2	          304D36
               2	          304BE7
               2	          304A6A
               2	          3049E8
               2	          304917
               2	          3048DD
               2	          304517
               2	          303274
               2	          303167
               2	          302D87
               2	          30299E
               2	          302833
               2	          301FFB
               2	          301854
               2	          301748
               2	          2FF7EC
               2	          2FE4C3
               2	          2FD84A
               2	          2FD1FA
               2	          2FD1C7
               2	          2FCB37
               2	          2FC70B
               2	          2FC443
               2	          2FBF93
               2	          2FB41E
               2	          2FB270
               2	          2F92E5
               2	          2F876E
               2	          2F84AF
               2	          2F79D7
               2	          2F72C4
               2	          2F6626
               2	          2F3BFC
               2	          2F379D
               2	          2F3085
               2	          2F3055
               2	          2F2F28
               2	          2F2BA4
               2	          2F2B04
               2	          2F2934
               2	          2F26C4
               2	          2F2692
               2	          2F265F
               2	          2F2582
               2	          2F193B
               2	          2F0F74
               2	          2F0D80
               2	          2F0729
               2	          2F06CE
               2	          2F048F
               2	          2F0148
               2	          2EFFDD
               2	          2EF501
               2	          2EF3E2
               2	          2EF398
               2	          2EEE21
               2	          2EEC53
               2	          2EE3FA
               2	          2EE3B0
               2	          2EDF34
               2	          2EDE5F
               2	          2EDA02
               2	          2ED390
               2	          2ECCC8
               2	          2ECAB3
               2	          2EBDF2
               2	          2EB0DC
               2	          2EAFFB
               2	          2EAFBF
               2	          2EA3C0
               2	          2E9C95
               2	          2E9863
               2	          2E8F05
               2	          2E78CC
               2	          2E6480
               2	          2E62C6
               2	          2E5E99
               2	          2E5AE5
               2	          2E5625
               2	          2E4C56
               2	          2E33DD
               2	          2E247A
               2	          2E1F83
               2	          2E15EB
               2	          2E152F
               2	          2E0E75
               2	          2E09DA
               2	          2DF8F6
               2	          2DEF32
               2	          2DEEFD
               2	          2DE92E
               2	          2DDA9A
               2	          2DD909
               2	          2DD83C
               2	          2DC58D
               2	          2DC1D1
               2	          2DBE9C
               2	          2DB392
               2	          2DB34D
               2	          2DB317
               2	          2DA043
               2	          2D98D7
               2	          2D9843
               2	          2D95A5
               2	          2D8718
               2	          2D7A10
               2	          2D7799
               2	          2D72ED
               2	          2D6F70
               2	          2D69D6
               2	          2D6448
               2	          2D5BC1
               2	          2D5807
               2	          2D50DE
               2	          2D50A4
               2	          2D4D24
               2	          2D4AC3
               2	          2D4166
               2	          2D4001
               2	          2D2384
               2	          2D21C6
               2	          2D219C
               2	          2D2118
               2	          2D0C1B
               2	          2D0B9F
               2	          2D0464
               2	          2D02FB
               2	          2CFC39
               2	          2CF86B
               2	          2CF479
               2	          2CF2E0
               2	          2CEF97
               2	          2CE960
               2	          2CD3E4
               2	          2CCBD9
               2	          2CCBB4
               2	          2CBE55
               2	          2CB59D
               2	          2CB2AF
               2	          2CA5A4
               2	          2CA4C6
               2	          2CA0AC
               2	          2C8B79
               2	          2C8198
               2	          2C7FB0
               2	          2C5C37
               2	          2C5A9A
               2	          2C4855
               2	          2C481D
               2	          2C46E7
               2	          2C463F
               2	          2C1F78
               2	          2C1D30
               2	          2C1A75
               2	          2C1967
               2	          2C140E
               2	          2C0EB2
               2	          2C0D7C
               2	          2C0946
               2	          2C04BE
               2	          2BEF3F
               2	          2BEADE
               2	          2BE6EC
               2	          2BE3BC
               2	          2BD77B
               2	          2BCE09
               2	          2BC149
               2	          2BBAA8
               2	          2BB76F
               2	          2BAB96
               2	          2BA816
               2	          2BA6EE
               2	          2BA005
               2	          2B9D46
               2	          2B9913
               2	          2B9760
               2	          2B8173
               2	          2B7EC0
               2	          2B7C26
               2	          2B7223
               2	          2B6154
               2	          2B5A15
               2	          2B5609
               2	          2B4E96
               2	          2B4B7E
               2	          2B4958
               2	          2B48BA
               2	          2B44DD
               2	          2B4069
               2	          2B39AB
               2	          2B2F7A
               2	          2B2A48
               2	          2B2192
               2	          2B1B3E
               2	          2B0D6E
               2	          2B09E1
               2	          2B06FB
               2	          2B00B6
               2	          2B0002
               2	          2AEEF6
               2	          2AEA31
               2	          2AE09B
               2	          2AD238
               2	          2ACBE9
               2	          2AC9F8
               2	          2AC052
               2	          2ABA88
               2	          2AB50F
               2	          2AB16F
               2	          2AAF6C
               2	          2AAF30
               2	          2AA617
               2	          2AA3EF
               2	          2A8701
               2	          2A7D7C
               2	          2A7A4D
               2	          2A78FA
               2	          2A76E1
               2	          2A7040
               2	          2A66D8
               2	          2A55BA
               2	          2A5320
               2	          2A4F57
               2	          2A433A
               2	          2A3803
               2	          2A2C35
               2	          2A2AD9
               2	          2A285F
               2	          2A266F
               2	          2A1F29
               2	          2A1E6F
               2	          2A068F
               2	          2A064B
               2	          2A04FF
               2	          29FD59
               2	          29F42F
               2	          29EA2E
               2	          29E86B
               2	          29E47B
               2	          29DB80
               2	          29CE67
               2	          29C25F
               2	          29B2B7
               2	          29A996
               2	          29A296
               2	          299D16
               2	          299898
               2	          297EDD
               2	          297DCB
               2	          297D65
               2	          297C66
               2	          297C3C
               2	          297AA5
               2	          29733F
               2	          296718
               2	          296698
               2	          296661
               2	          296460
               2	          296212
               2	          295E5B
               2	          295C05
               2	          295970
               2	          29586B
               2	          295826
               2	          2956F5
               2	          2956AA
               2	          2954E5
               2	          295376
               2	          29523E
               2	          295212
               2	          295114
               2	          294F9E
               2	          294D8F
               2	          294D09
               2	          294790
               2	          293D93
               2	          292F5F
               2	          292F1D
               2	          292CB9
               2	          292812
               2	          29277C
               2	          292450
               2	          29233F
               2	          290B8A
               2	          290537
               2	          2903CD
               2	          28F8F1
               2	          28EA72
               2	          28E282
               2	          28D21A
               2	          28D1C8
               2	          28CD91
               2	          28BF4D
               2	          28BDA8
               2	          28BD4D
               2	          28B9A3
               2	          28B8CA
               2	          28A373
               2	          289E68
               2	          289D97
               2	          289D4D
               2	          2895EA
               2	          28745D
               2	          286512
               2	          285A75
               2	          285A3F
               2	          2853D1
               2	          28538B
               2	          28534F
               2	          284D60
               2	          2847C8
               2	          283DA4
               2	          283954
               2	          282EF1
               2	          2826F3
               2	          282697
               2	          281A97
               2	          281207
               2	          28039D
               2	          2802FB
               2	          280056
               2	          27FCE7
               2	          27F375
               2	          27EB90
               2	          27D394
               2	          27D28A
               2	          27D218
               2	          27CE59
               2	          27CCB8
               2	          27CBEE
               2	          27CA23
               2	          27B93D
               2	          27AD59
               2	          279EF7
               2	          2799D4
               2	          279711
               2	          279257
               2	          278F30
               2	          278EC7
               2	          278D18
               2	          2786F8
               2	          2785FE
               2	          277D00
               2	          2777DA
               2	          2774ED
               2	          2770BA
               2	          276C87
               2	          2768E4
               2	          275F2A
               2	          275950
               2	          275487
               2	          274449
               2	          27402D
               2	          273EF7
               2	          2730A5
               2	          272875
               2	          271248
               2	          271155
               2	          27110B
               2	          2710C8
               2	          26F2E8
               2	          26ED47
               2	          26EAC8
               2	          26E91B
               2	          26E605
               2	          26E400
               2	          26E3ED
               2	          26E2CD
               2	          26DA68
               2	          26D81A
               2	          26D22E
               2	          26C795
               2	          26C277
               2	          26BFA5
               2	          26BCBD
               2	          26B47A
               2	          26B2FC
               2	          26B2BA
               2	          26AF27
               2	          26A86E
               2	          26A570
               2	          268F78
               2	          267BDD
               2	          267BA8
               2	          267159
               2	          266F7E
               2	          266F4E
               2	          266D0A
               2	          266AA4
               2	          2669B3
               2	          26690E
               2	          26682A
               2	          266398
               2	          265ED1
               2	          26575D
               2	          264C3E
               2	          263286
               2	          262A95
               2	          262275
               2	          261A18
               2	          2612C0
               2	          261296
               2	          260B63
               2	          25FFC0
               2	          25FDD8
               2	          25E97F
               2	          25E0F4
               2	          25DD00
               2	          25D8CD
               2	          25D81B
               2	          25B3FE
               2	          25AF3D
               2	          25AAAD
               2	          259C78
               2	          259486
               2	          257FF6
               2	          257C32
               2	          257772
               2	          255D8E
               2	          2557FC
               2	          254624
               2	          2538BD
               2	          25272A
               2	          2523F8
               2	          250D0B
               2	          250C42
               2	          2508C8
               2	          2502D9
               2	          24FE73
               2	          24E078
               2	          24CA07
               2	          24C8F9
               2	          24C81F
               2	          24C740
               2	          24C64D
               2	          24B28E
               2	          24ABAB
               2	          24A73B
               2	          24A0A8
               2	          249C0D
               2	          249B24
               2	          249857
               2	          2494D9
               2	          248B85
               2	          247ADF
               2	          2473F1
               2	          24738F
               2	          246F4C
               2	          246AC4
               2	          2457C6
               2	          245586
               2	          2447C6
               2	          2429C9
               2	          242563
               2	          241C43
               2	          241911
               2	          240E0C
               2	          23FB6D
               2	          23FAB9
               2	          23F967
               2	          23F8EB
               2	          23F828
               2	          23F599
               2	          23E911
               2	          23D921
               2	          23D6E9
               2	          23C49B
               2	          23C0A5
               2	          23B56A
               2	          23B331
               2	          23B2F5
               2	          23B2BF
               2	          23AD31
               2	          23ACF3
               2	          23A750
               2	          23A716
               2	          23A303
               2	          23A2C9
               2	          2396F5
               2	          23833F
               2	          238025
               2	          237E43
               2	          237AA9
               2	          2379B0
               2	          23778A
               2	          23714C
               2	          237021
               2	          236736
               2	          235DAE
               2	          234A07
               2	          234523
               2	          234204
               2	          2333A4
               2	          232EA7
               2	          232E00
               2	          23247F
               2	          230380
               2	          22FA6B
               2	          22F572
               2	          22F3C0
               2	          22E6C9
               2	          22D3C4
               2	          22D346
               2	          22CDAE
               2	          22C011
               2	          22BEBF
               2	          22B6E0
               2	          22AD90
               2	          22A394
               2	          22A0A9
               2	          229D2D
               2	          229BED
               2	          229B74
               2	          229750
               2	          2292AB
               2	          2280BD
               2	          228082
               2	          227C64
               2	          2263FA
               2	          2261D7
               2	          225672
               2	          224E60
               2	          224DCF
               2	          224028
               2	          224008
               2	          22319A
               2	          223156
               2	          22311E
               2	          222F9A
               2	          222CC5
               2	          222B22
               2	          22265E
               2	          22208E
               2	          220E65
               2	          220D51
               2	          220CBD
               2	          220736
               2	          22023F
               2	          21F9F6
               2	          21F69D
               2	          21E300
               2	          21D61B
               2	          21D3CE
               2	          21D21E
               2	          21CB3A
               2	          21CAC9
               2	          21A797
               2	          21908D
               2	          218BA0
               2	          218B10
               2	          218A78
               2	          218705
               2	          218607
               2	          218124
               2	          217D7D
               2	          21771B
               2	          216515
               2	          2163CA
               2	          215D40
               2	          21586F
               2	          21572D
               2	          211D0C
               2	          2119DA
               2	          20FDA9
               2	          20FD73
               2	          20FCD9
               2	          20F91B
               2	          20F12F
               2	          20F08D
               2	          20ECA5
               2	          20E78A
               2	          20E45F
               2	          20E41D
               2	          20E2C9
               2	          20E24C
               2	          20D148
               2	          20BC03
               2	          20A42B
               2	          20A3B8
               2	          209AFF
               2	          208EC5
               2	          2089D4
               2	          207E59
               2	          207A05
               2	          207426
               2	          206E06
               2	          206A9E
               2	          20693A
               2	          2062C4
               2	          205BF3
               2	          20598A
               2	          2043DB
               2	          2026A4
               2	          202469
               2	          202170
               2	          2013E7
               2	          201088
               2	          1FFDE6
               2	          1FED1B
               2	          1FEBDC
               2	          1FD8B0
               2	          1FD219
               2	          1FD091
               2	          1FD051
               2	          1FCD6A
               2	          1FCAE6
               2	          1FCAA4
               2	          1FC759
               2	          1FBF27
               2	          1FBE5D
               2	          1FB8BA
               2	          1FB844
               2	          1FB1E5
               2	          1FB0FC
               2	          1FA4DF
               2	          1FA03D
               2	          1F9FC8
               2	          1F9969
               2	          1F9803
               2	          1F775C
               2	          1F5F29
               2	          1F5864
               2	          1F5617
               2	          1F542A
               2	          1F5382
               2	          1F4F71
               2	          1F4C55
               2	          1F4C15
               2	          1F4862
               2	          1F4723
               2	          1F42C2
               2	          1F3BFB
               2	          1F3BA2
               2	          1F3AF5
               2	          1F2F1F
               2	          1F1388
               2	          1F0590
               2	          1EFED5
               2	          1EE54D
               2	          1ECE37
               2	          1EBD7B
               2	          1EB405
               2	          1EB150
               2	          1EB05B
               2	          1EAC77
               2	          1EA81D
               2	          1E94EB
               2	          1E8731
               2	          1E84CB
               2	          1E822E
               2	          1E7A42
               2	          1E6C24
               2	          1E69D0
               2	          1E641E
               2	          1E6131
               2	          1E5527
               2	          1E4ABB
               2	          1E42AF
               2	          1E3EE3
               2	          1E3E65
               2	          1E2F93
               2	          1E2DF2
               2	          1E2B6C
               2	          1E2245
               2	          1E20F5
               2	          1E1961
               2	          1E16E3
               2	          1E119E
               2	          1DF6AE
               2	          1DF639
               2	          1DF1E8
               2	          1DEEE0
               2	          1DCA2F
               2	          1DB71E
               2	          1DB411
               2	          1DA863
               2	          1DA4D5
               2	          1D9B82
               2	          1D9865
               2	          1D9778
               2	          1D91EC
               2	          1D7F8B
               2	          1D7BFD
               2	          1D7739
               2	          1D628A
               2	          1D478D
               2	          1D4757
               2	          1D4614
               2	          1D3FC3
               2	          1D3C5F
               2	          1D32FD
               2	          1D3257
               2	          1D26A6
               2	          1D2598
               2	          1D1734
               2	          1D0FC4
               2	          1D0F0C
               2	          1CFFCD
               2	          1CEBD9
               2	          1CC497
               2	          1CACD9
               2	          1CA86B
               2	          1C9BDE
               2	          1C9B46
               2	          1C9ACD
               2	          1C96E4
               2	          1C8AC9
               2	          1C8199
               2	          1C7CD7
               2	          1C7C37
               2	          1C6CA4
               2	          1C6C69
               2	          1C6488
               2	          1C63EC
               2	          1C586E
               2	          1C4EA1
               2	          1C4E69
               2	          1C49F6
               2	          1C424D
               2	          1C3D19
               2	          1C20BF
               2	          1C1DB8
               2	          1C0515
               2	          1BFB10
               2	          1BF0BD
               2	          1BDCFB
               2	          1BD4EB
               2	          1BC736
               2	          1BAFC0
               2	          1BA51A
               2	          1BA1D6
               2	          1B7EB6
               2	          1B5BC5
               2	          1B5852
               2	          1B51D2
               2	          1B4CDB
               2	          1B45B2
               2	          1B402A
               2	          1B2227
               2	          1B1DEF
               2	          1B1C61
               2	          1B1A56
               2	          1B1705
               2	          1B1602
               2	          1B09B1
               2	          1B0740
               2	          1B0266
               2	          1AE861
               2	          1AE758
               2	          1AE2C8
               2	          1AD17B
               2	          1ACDD2
               2	          1AB5C1
               2	          1AB466
               2	          1AA8D5
               2	          1AA291
               2	          1AA00D
               2	          1A708B
               2	          1A6C3F
               2	          1A6519
               2	          1A5EB5
               2	          1A53EA
               2	          1A4C70
               2	          1A44A6
               2	          1A3D22
               2	          1A3895
               2	          1A2A13
               2	          1A26AE
               2	          1A24D2
               2	          1A248E
               2	          1A23C8
               2	          1A237C
               2	          1A1471
               2	          1A12FB
               2	          19EB11
               2	          19DD69
               2	          19DA2E
               2	          19D8F9
               2	          19D4C6
               2	          19D4A1
               2	          19D487
               2	          19C9F4
               2	          19C945
               2	          19C345
               2	          19C0D4
               2	          19A654
               2	          19A4D7
               2	          19860B
               2	          197FFC
               2	          1976D1
               2	          197604
               2	          19646E
               2	          1962B6
               2	          1958EC
               2	          195601
               2	          1953BB
               2	          194AAF
               2	          193FCB
               2	          193F63
               2	          1939B5
               2	          193806
               2	          1915EC
               2	          18FC6D
               2	          18F541
               2	          18F507
               2	          18E98A
               2	          18E793
               2	          18E2F0
               2	          18D74B
               2	          189CC4
               2	          1893B3
               2	          1892CF
               2	          188D92
               2	          188C35
               2	          188528
               2	          187F40
               2	          187CF3
               2	          187C01
               2	          187A35
               2	          1871E3
               2	          186542
               2	          185FCE
               2	          185DA3
               2	          185AA5
               2	          1836DB
               2	          181C0C
               2	          181636
               2	          181371
               2	          180480
               2	          17FC82
               2	          17F367
               2	          17F112
               2	          17EFEA
               2	          17EFAE
               2	          17EEA8
               2	          17EC86
               2	          17E3B1
               2	          17DE80
               2	          17D297
               2	          17B5E1
               2	          17992E
               2	          179710
               2	          179382
               2	          179301
               2	          1780CC
               2	          178088
               2	          178041
               2	          1774EF
               2	          174E8B
               2	          1734F4
               2	          172BBB
               2	          1722B2
               2	          171D91
               2	          171C5C
               2	          170FA7
               2	          170030
               2	          16FEC9
               2	          16F6D8
               2	          16F1CF
               2	          16E169
               2	          16C3A4
               2	          16C32C
               2	          16BC4C
               2	          16AC25
               2	          16A01A
               2	          169F35
               2	          169EED
               2	          169DBE
               2	          169B0C
               2	          169763
               2	          1684FF
               2	          168290
               2	          167F77
               2	          166DE5
               2	          1663D2
               2	          165ED0
               2	          16594E
               2	          1658AC
               2	          165856
               2	          1650C9
               2	          164FF1
               2	          16478C
               2	          164573
               2	          1641BC
               2	          163A12
               2	          162BD9
               2	          16292D
               2	          1624E7
               2	          162476
               2	          162438
               2	          162357
               2	          1621ED
               2	          16197C
               2	          1618D5
               2	          1615A9
               2	          15EF81
               2	          15ECF8
               2	          15E095
               2	          15DAC7
               2	          15DA3C
               2	          15D5CA
               2	          15C70A
               2	          15C30B
               2	          15B0B0
               2	          15AFD8
               2	          15ADEC
               2	          15AD0A
               2	          15A9F2
               2	          15A13C
               2	          159FD8
               2	          158C09
               2	          1587D7
               2	          1573C5
               2	          1573A4
               2	          154F51
               2	          154C42
               2	          151D77
               2	          150943
               2	          15016F
               2	          14FC50
               2	          14FB82
               2	          14FB4C
               2	          14FAA5
               2	          14F17A
               2	          14EF0A
               2	          14DFB4
               2	          14DDB9
               2	          14D36A
               2	          14D327
               2	          14CF89
               2	          14C70C
               2	          14C2DA
               2	          14B6F8
               2	          14A98E
               2	          149E03
               2	          1498FB
               2	          147ECF
               2	          146E97
               2	          146A55
               2	          145E78
               2	          145C26
               2	          145AB8
               2	          145151
               2	          1446FB
               2	          1446C1
               2	          143FA3
               2	          1438AF
               2	          141D7F
               2	          141729
               2	          13FF4D
               2	          13FEDB
               2	          13FE32
               2	          13F75A
               2	          13F6ED
               2	          13E63E
               2	          13E4AA
               2	          13E472
               2	          13E2AE
               2	          13CFF9
               2	          13CFE1
               2	          13C670
               2	          13BEC8
               2	          13BAAB
               2	          13BA1E
               2	          13B9F0
               2	          13B98A
               2	          13B7CD
               2	          13B7B3
               2	          13B454
               2	          13AEE2
               2	          139E39
               2	          1385D2
               2	          1384E6
               2	          137C84
               2	          13655F
               2	          135683
               2	          134B5B
               2	          133FCE
               2	          133909
[...]
               1	            856A
               1	            853C
               1	            8508
               1	            84CA
               1	            848E
               1	            8457
               1	            8423
               1	            83F7
               1	            83C9
               1	            8393
               1	            8329
               1	            82ED
               1	            82BF
               1	            828D
               1	            8253
               1	            8219
               1	            81E1
               1	            81A7
               1	            8179
               1	            814D
               1	            8111
               1	            80E1
               1	            80AB
               1	            8079
               1	            8043
               1	            8007
               1	            7FD3
               1	            7F94
               1	            7F5C
               1	            7F28
               1	            7EF6
               1	            7EBE
               1	            7E94
               1	            7E6A
               1	            7E38
               1	            7DFC
               1	            7DC4
               1	            7D8A
               1	            7D53
               1	            7D13
               1	            7CD6
               1	            7CAA
               1	            7C78
               1	            7C42
               1	            7C0C
               1	            7BD8
               1	            7BA4
               1	            7B70
               1	            7B42
               1	            7B0A
               1	            7AD0
               1	            7A9C
               1	            7A68
               1	            7A38
               1	            7A08
               1	            79D4
               1	            7992
               1	            795A
               1	            791F
               1	            78E7
               1	            78B3
               1	            7877
               1	            7845
               1	            77FD
               1	            77C9
               1	            7795
               1	            7754
               1	            7718
               1	            76DC
               1	            76A2
               1	            765E
               1	            761A
               1	            75D2
               1	            7592
               1	            7552
               1	            751C
               1	            74E6
               1	            7497
               1	            7459
               1	            7417
               1	            73C9
               1	            737D
               1	            733B
               1	            7313
               1	            72DB
               1	            72A3
               1	            7217
               1	            71DB
               1	            7199
               1	            7167
               1	            712D
               1	            70FF
               1	            70C5
               1	            708F
               1	            705F
               1	            702B
               1	            6FF9
               1	            6FC5
               1	            6F95
               1	            6F5D
               1	            6F34
               1	            6F00
               1	            6EC8
               1	            6E8E
               1	            6E5E
               1	            6E32
               1	            6DF6
               1	            6DCA
               1	            6D9A
               1	            6D6C
               1	            6D32
               1	            6CFD
               1	            6CCB
               1	            6C8F
               1	            6C59
               1	            6C27
               1	            6BEC
               1	            6BAC
               1	            6B6E
               1	            6B33
               1	            6B01
               1	            6AB9
               1	            6A7F
               1	            6A47
               1	            6A1B
               1	            69DF
               1	            69A5
               1	            6961
               1	            6929
               1	            68E1
               1	            6893
               1	            6847
               1	            6811
               1	            67D5
               1	            679B
               1	            6763
               1	            6723
               1	            66DD
               1	            66A1
               1	            666F
               1	            6637
               1	            65F9
               1	            65C5
               1	            6589
               1	            6547
               1	            6509
               1	            64CB
               1	            6481
               1	            644F
               1	            6405
               1	            63C7
               1	            638D
               1	            6367
               1	            6327
               1	            62E5
               1	            62A8
               1	            625E
               1	            622C
               1	            61F0
               1	            61AE
               1	            616C
               1	            6136
               1	            60FE
               1	            60C8
               1	            608C
               1	            6058
               1	            6012
               1	            5FD6
               1	            5F9E
               1	            5F60
               1	            5F21
               1	            5EE0
               1	            5EA1
               1	            5E6B
               1	            5E3D
               1	            5E09
               1	            5DD1
               1	            5D5F
               1	            5D27
               1	            5CF7
               1	            5CBD
               1	            5C77
               1	            5C45
               1	            5C0F
               1	            5BE3
               1	            5BB7
               1	            5B85
               1	            5B53
               1	            5B0D
               1	            5ACB
               1	            5A97
               1	            5A57
               1	            5A17
               1	            59DD
               1	            59A1
               1	            5907
               1	            58C1
               1	            5895
               1	            585A
               1	            5824
               1	            57EC
               1	            57AC
               1	            577A
               1	            5746
               1	            5714
               1	            56E2
               1	            56AC
               1	            5666
               1	            562C
               1	            55E6
               1	            55B2
               1	            557E
               1	            553C
               1	            5500
               1	            54C2
               1	            5483
               1	            5450
               1	            5419
               1	            53DB
               1	            53A1
               1	            536D
               1	            533B
               1	            530F
               1	            52D7
               1	            52A1
               1	            5271
               1	            523F
               1	            5201
               1	            51D1
               1	            51A5
               1	            5171
               1	            512B
               1	            50E0
               1	            50AE
               1	            5076
               1	            503C
               1	            5003
               1	            4FCD
               1	            4F93
               1	            4F61
               1	            4F2B
               1	            4EFB
               1	            4ECD
               1	            4E9D
               1	            4E6D
               1	            4E35
               1	            4DE9
               1	            4DB3
               1	            4D65
               1	            4D35
               1	            4CF5
               1	            4CAF
               1	            4C62
               1	            4C2E
               1	            4BF8
               1	            4BBC
               1	            4B7F
               1	            4B47
               1	            4B0B
               1	            4AC3
               1	            4A83
               1	            4A41
               1	            4A11
               1	            49CF
               1	            499B
               1	            495C
               1	            491E
               1	            48EC
               1	            48B0
               1	            4830
               1	            47FB
               1	            47BD
               1	            4779
               1	            4741
               1	            468C
               1	            464C
               1	            4618
               1	            45B2
               1	            457E
               1	            4544
               1	            450A
               1	            44C8
               1	            4482
               1	            43CA
               1	            4394
               1	            4330
               1	            42F0
               1	            42BC
               1	            4278
               1	            4236
               1	            41F8
               1	            41B6
               1	            417E
               1	            4144
               1	            40F7
               1	            40C5
               1	            4091
               1	            405F
               1	            4021
               1	            3FF7
               1	            3FB5
               1	            3F6F
               1	            3F3B
               1	            3EFF
               1	            3EC5
               1	            3E7F
               1	            3E4A
               1	            3E16
               1	            3DE6
               1	            3DB2
               1	            3D80
               1	            3D4C
               1	            3D0C
               1	            3CCA
               1	            3C84
               1	            3C10
               1	            3BD4
               1	            3BAA
               1	            3B72
               1	            3B37
               1	            3AF1
               1	            3AB3
               1	            3A77
               1	            3A37
               1	            3A03
               1	            39B9
               1	            397B
               1	            3937
               1	            3901
               1	            38D3
               1	            3893
               1	            385B
               1	            381B
               1	            37E5
               1	            37A7
               1	            3764
               1	            3718
               1	            36E0
               1	            36AA
               1	            3672
               1	            3632
               1	            3602
               1	            35C4
               1	            3580
               1	            353A
               1	            3504
               1	            34CE
               1	            349A
               1	            345C
               1	            3416
               1	            33A4
               1	            3360
               1	            32DC
               1	            32A0
               1	            3266
               1	            322A
               1	            31EE
               1	            31A8
               1	            3176
               1	            3144
               1	            3106
               1	            30C4
               1	            3086
               1	            3050
               1	            301C
               1	            2FDA
               1	            2F9C
               1	            2F5E
               1	            2F1A
               1	            2ED8
               1	            2E9C
               1	            2E58
               1	            2E10
               1	            2DDA
               1	            2D9A
               1	            2D58
               1	            2D16
               1	            2CE1
               1	            2C60
               1	            2C1C
               1	            2BE2
               1	            2BB0
               1	            2B72
               1	            2B3C
               1	            2B00
               1	            2AC2
               1	            2A72
               1	            2A32
               1	            2A00
               1	            29C7
               1	            2995
               1	            295C
               1	            2927
               1	            28F1
               1	            28A9
               1	            2863
               1	            2835
               1	            2803
               1	            27CF
               1	            279B
               1	            276B
               1	            2731
               1	            26F7
               1	            26BB
               1	            268D
               1	            2653
               1	            2617
               1	            25E9
               1	            25B3
               1	            257B
               1	            2545
               1	            2501
               1	            24C5
               1	            2487
               1	            244F
               1	            2407
               1	            23D1
               1	            2391
               1	            234B
               1	            231D
               1	            22EF
               1	            22B1
               1	            2281
               1	            221D
               1	            21DF
               1	            21A7
               1	            2165
               1	            2123
               1	            20EB
               1	            20B5
               1	            206B
               1	            2025
               1	            1FEF
               1	            1FAB
               1	            1F6F
               1	            1F2D
               1	            1EF1
               1	            1EAD
               1	            1E7B
               1	            1E45
               1	            1DC3
               1	            1D77
               1	            1D36
               1	            1CF4
               1	            1CB7
               1	            1C7F
               1	            1C3F
               1	            1C01
               1	            1BBF
               1	            1B78
               1	            1B4A
               1	            1B10
               1	            1AD7
               1	            1A9C
               1	            1A6C
               1	            1A20
               1	            19E8
               1	            19A2
               1	            1960
               1	            18E4
               1	            1843
               1	            1811
               1	            17D5
               1	            1799
               1	            174F
               1	            1702
               1	            16B0
               1	            1678
               1	            1638
               1	            15F5
               1	            15B7
               1	            157D
               1	            153F
               1	            1507
               1	            14CB
               1	            1481
               1	            1451
               1	            1416
               1	            13DC
               1	            1396
               1	            1358
               1	            130F
               1	            12C7
               1	            1297
               1	            125D
               1	            1223
               1	            11E5
               1	            11B5
               1	            1183
               1	            1151
               1	            111F
               1	            10F6
               1	            10BB
               1	            1089
               1	            1057
               1	            102E
               1	            1003
               1	             FD4
               1	             FA1
               1	             F78
               1	             F47
               1	             F09
               1	             EE3
               1	             EC1
               1	             E94
               1	             E6D
               1	             E44
               1	             E0C
               1	             DDD
               1	             DB0
               1	             D89
               1	             D5A
               1	             D1B
               1	             CF6
               1	             CC7
               1	             C98
               1	             C65
               1	             C3A
               1	             C16
               1	             BEF
               1	             BC0
               1	             B9B
               1	             B37
               1	             B10
               1	             AE5
               1	             ABE
               1	             A95
               1	             A66
               1	             A23
               1	             9F3
               1	             9CA
               1	             98D
               1	             964
               1	             939
               1	             902
               1	             8C9
               1	             88C
               1	             853
               1	             818
               1	             7E3
               1	             7AA
               1	             775
               1	             745
               1	             718
               1	             6D1
               1	             6A2
               1	             67D
               1	             65C
               1	             612
               1	             5EF
               1	             5B8
               1	             589
               1	             560
               1	             535
               1	             502
               1	             4D7
               1	             4A8
               1	             47F
               1	             45C
               1	             431
               1	             406
               1	             3D7
               1	             3B9
               1	             396
               1	             36C
               1	             352
               1	             336
               1	             312
               1	             2F4
               1	             2C8
               1	             29E
               1	             282
               1	             264
               1	             23E
               1	             218
               1	             1DE
               1	             1C0
               1	             19C
               1	             176
               1	             14E
               1	             124
               1	             102
               1	              DA
               1	              B3
               1	              88
               1	              6A
               1	              40
               1	              14
