               1	               0
               2	               0
               3	               0
               4	               7
               5	               7
               6	               e
               7	              22
               8	               e
               9	              1e
               A	              1c
               B	               1
               C	               9
               D	               b
               E	               8
               F	               f
              10	               0
              11	               0
              12	               0
              13	               0
              14	               0
              15	               0
              16	               0
              17	               0
              18	               0
              19	               0
              1A	               0
              1B	               0
              1C	               0
              1D	               1
              1E	               0
              1F	               0
              20	               0
              21	               0
              22	               0
              23	               0
              24	               0
              25	               0
              26	               0
              27	               0
              28	               0
              29	               0
              2A	               0
              2B	               5
              2C	               0
              2D	               0
              2E	               0
              2F	               0
              30	               0
              31	               0
              32	               0
              33	               0
              34	               0
              35	               0
              36	               0
              37	               0
              38	               0
              39	               0
              3A	               0
              3B	               0
              3C	               0
              3D	               0
              3E	               1
              3F	               0
              40	               0
              41	               0
              42	               0
              43	               0
              44	               0
              45	               0
              46	               0
              47	               0
              48	               0
              49	               0
              4A	               0
              4B	               0
              4C	               0
              4D	               0
              4E	               0
              4F	               6
              50	               1
              51	               5
              52	               0
              53	               0
