               1	               0
               2	               0
               3	               0
               4	               0
               5	               0
               6	               0
               7	               0
               8	               0
               9	               0
               A	               0
               B	               0
               C	               0
               D	               6
               E	               e
               F	               d
              10	              15
              11	              14
              12	               e
              13	               5
              14	               7
              15	               8
              16	               9
              17	               f
              18	               7
              19	               3
              1A	               0
              1B	               2
              1C	               2
              1D	               1
              1E	               1
              1F	               c
              20	               0
              21	               0
              22	               0
              23	               0
              24	               0
              25	               0
              26	               0
              27	               0
              28	               0
              29	               0
              2A	               1
              2B	               0
              2C	               0
              2D	               0
              2E	               0
              2F	               0
              30	               0
              31	               0
              32	               0
              33	               0
              34	               0
              35	               0
              36	               0
              37	               0
              38	               0
              39	               0
              3A	               0
              3B	               1
              3C	               0
              3D	               0
              3E	               0
              3F	               0
              40	               0
              41	               0
              42	               0
              43	               0
              44	               0
              45	               0
              46	               0
              47	               0
              48	               0
              49	               1
              4A	               0
              4B	               0
              4C	               0
              4D	               0
              4E	               0
              4F	               0
              50	               0
              51	               0
              52	               0
              53	               0
              54	               0
              55	               0
              56	               0
              57	               3
              58	               0
              59	               0
              5A	               0
              5B	               0
              5C	               0
              5D	               0
              5E	               0
              5F	               0
              60	               0
              61	               0
              62	               0
              63	               0
              64	               0
              65	               0
              66	               0
              67	               0
              68	               0
              69	               0
              6A	               1
              6B	               0
              6C	               0
              6D	               0
              6E	               0
              6F	               0
              70	               0
              71	               0
              72	               0
              73	               0
              74	               0
              75	               0
              76	               0
              77	               0
              78	               0
              79	               0
              7A	               0
              7B	               0
              7C	               0
              7D	               1
              7E	               0
              7F	               0
              80	               0
              81	               0
              82	               0
              83	               0
              84	               0
              85	               0
              86	               0
              87	               0
              88	               0
              89	               0
              8A	               0
              8B	               0
              8C	               0
              8D	               0
              8E	               0
              8F	               0
              90	               1
              91	               0
              92	               0
              93	               0
              94	               0
              95	               0
              96	               0
              97	               0
              98	               0
              99	               0
              9A	               0
              9B	               0
              9C	               0
              9D	               0
              9E	               0
              9F	               4
              A0	               1
              A1	               1
              A2	               1
              A3	               3
              A4	               0
              A5	               0
              A6	               0
              A7	               0
