               1	               0
               2	               0
               3	               0
               4	               0
               5	               0
               6	               0
               7	               0
               8	               0
               9	               0
               A	               0
               B	               0
               C	               0
               D	               0
               E	               0
               F	               0
              10	               0
              11	               0
              12	              14
              13	               7
              14	               d
              15	              14
              16	               6
              17	               0
              18	              11
              19	               7
              1A	               8
              1B	               2
              1C	              16
              1D	               7
              1E	               3
              1F	               0
              20	               1
              21	               1
              22	               1
              23	               1
              24	               2
              25	               1
              26	               1
              27	               b
              28	               0
              29	               0
              2A	               0
              2B	               0
              2C	               0
              2D	               0
              2E	               0
              2F	               1
              30	               0
              31	               0
              32	               0
              33	               0
              34	               0
              35	               0
              36	               0
              37	               0
              38	               0
              39	               0
              3A	               0
              3B	               0
              3C	               0
              3D	               0
              3E	               0
              3F	               0
              40	               1
              41	               0
              42	               0
              43	               0
              44	               0
              45	               0
              46	               0
              47	               0
              48	               0
              49	               0
              4A	               0
              4B	               0
              4C	               0
              4D	               0
              4E	               0
              4F	               0
              50	               0
              51	               1
              52	               0
              53	               0
              54	               0
              55	               0
              56	               0
              57	               0
              58	               0
              59	               0
              5A	               0
              5B	               0
              5C	               0
              5D	               0
              5E	               0
              5F	               1
              60	               0
              61	               0
              62	               0
              63	               0
              64	               0
              65	               0
              66	               0
              67	               0
              68	               0
              69	               0
              6A	               0
              6B	               0
              6C	               0
              6D	               2
              6E	               0
              6F	               0
              70	               0
              71	               0
              72	               0
              73	               0
              74	               0
              75	               0
              76	               0
              77	               0
              78	               0
              79	               0
              7A	               0
              7B	               0
              7C	               0
              7D	               0
              7E	               0
              7F	               0
              80	               1
              81	               0
              82	               0
              83	               0
              84	               0
              85	               0
              86	               0
              87	               0
              88	               0
              89	               0
              8A	               0
              8B	               0
              8C	               0
              8D	               0
              8E	               0
              8F	               0
              90	               0
              91	               0
              92	               0
              93	               1
              94	               0
              95	               0
              96	               0
              97	               0
              98	               0
              99	               0
              9A	               0
              9B	               0
              9C	               0
              9D	               0
              9E	               0
              9F	               0
              A0	               0
              A1	               0
              A2	               0
              A3	               0
              A4	               0
              A5	               0
              A6	               1
              A7	               0
              A8	               0
              A9	               0
              AA	               0
              AB	               0
              AC	               0
              AD	               0
              AE	               0
              AF	               0
              B0	               0
              B1	               0
              B2	               0
              B3	               0
              B4	               0
              B5	               0
              B6	               0
              B7	               0
              B8	               0
              B9	               1
              BA	               0
              BB	               0
              BC	               0
              BD	               0
              BE	               0
              BF	               0
              C0	               0
              C1	               0
              C2	               0
              C3	               0
              C4	               0
              C5	               0
              C6	               0
              C7	               3
              C8	               1
              C9	               1
              CA	               1
              CB	               1
              CC	               2
              CD	               0
              CE	               0
              CF	               0
              D0	               0
              D1	               0
