               1	               0
               2	               0
               3	               0
               4	               0
               5	               0
               6	               1
               7	               0
               8	               7
               9	               1
               A	              14
               B	              15
               C	              14
               D	              23
               E	               e
               F	              15
              10	               1
              11	               9
              12	               8
              13	               7
              14	               5
              15	               1
              16	               1
              17	               d
              18	               0
              19	               0
              1A	               0
              1B	               0
              1C	               0
              1D	               0
              1E	               0
              1F	               0
              20	               0
              21	               0
              22	               0
              23	               0
              24	               0
              25	               1
              26	               0
              27	               0
              28	               0
              29	               0
              2A	               0
              2B	               1
              2C	               0
              2D	               0
              2E	               0
              2F	               0
              30	               0
              31	               0
              32	               0
              33	               1
              34	               0
              35	               0
              36	               0
              37	               0
              38	               0
              39	               0
              3A	               0
              3B	               0
              3C	               0
              3D	               0
              3E	               0
              3F	               0
              40	               0
              41	               4
              42	               0
              43	               0
              44	               0
              45	               0
              46	               0
              47	               0
              48	               0
              49	               0
              4A	               0
              4B	               0
              4C	               0
              4D	               0
              4E	               0
              4F	               0
              50	               0
              51	               1
              52	               0
              53	               0
              54	               1
              55	               0
              56	               0
              57	               0
              58	               0
              59	               0
              5A	               0
              5B	               0
              5C	               0
              5D	               0
              5E	               0
              5F	               0
              60	               0
              61	               0
              62	               0
              63	               0
              64	               0
              65	               0
              66	               0
              67	               1
              68	               0
              69	               0
              6A	               0
              6B	               0
              6C	               0
              6D	               0
              6E	               0
              6F	               0
              70	               0
              71	               0
              72	               0
              73	               0
              74	               0
              75	               0
              76	               0
              77	               5
              78	               1
              79	               1
              7A	               4
              7B	               0
              7C	               0
              7D	               0
