               1	               7
               2	              2a
               3	              15
               4	              43
               5	               0
               6	               c
               7	              1f
               8	               7
               9	               0
               A	               0
               B	               0
               C	               0
               D	               0
               E	               0
               F	               0
              10	               0
              11	               0
              12	               0
              13	               0
              14	               0
              15	               6
              16	               0
              17	               0
              18	               0
              19	               0
              1A	               0
              1B	               0
              1C	               0
              1D	               0
              1E	               0
              1F	               0
              20	               0
              21	               0
              22	               0
              23	               0
              24	               0
              25	               0
              26	               0
              27	               7
              28	               6
              29	               0
