             1A5	           38F1D
              7C	           5D15E
              72	          2350A2
              5F	           842B4
              5C	           81A93
              57	          241F9F
              4E	          24710F
              4C	           7501D
              48	           27B38
              39	          239552
              33	          24715B
              30	          26E99C
              2F	           614AD
              27	          28BFB1
              26	          28BBA5
              23	          2FB2EE
              21	          228116
              21	           390A1
              1F	           6982E
              1D	           1952D
              1C	          23FE1A
              1B	          231FEF
              1B	           3A98A
              1A	           70658
              17	               0
              16	           946A9
              15	           365EA
              15	           28BBA
              14	          25E028
              14	          259318
              13	          2FEE13
              13	          294104
              13	          287696
              13	           97FCE
              12	          2F4E59
              12	          164624
              12	          155ECF
              12	           FD869
              12	           6A723
              12	           38202
              11	          29F0ED
              11	          23C95B
              11	          14E2D6
              11	           99280
              11	           96680
              11	           66D8B
              10	          28BBC1
              10	          2862B5
              10	          2808A1
              10	          2659B1
              10	          1974E5
              10	           FFF8E
              10	           44948
              10	           39088
              10	           3000A
              10	           22F1E
               F	          2F1531
               F	          2EEABF
               F	          2CEFDC
               F	          2B5FDD
               F	          28E3E2
               F	          282617
               F	          27E07E
               F	          27BB64
               F	          2483B7
               F	          24532E
               F	          244E05
               F	          1CB28E
               F	          1C57DD
               F	          1C5768
               F	          1C18A5
               F	          19A9E1
               F	          1990DA
               F	          173EE7
               F	          16CEF2
               F	          164E98
               F	          157E93
               F	           DA78E
               F	           6ACA8
               F	           606D3
               F	           5E424
               F	           4963E
               F	           46AB0
               F	           1F041
               F	           1463A
               E	          25DD2D
               E	          1E297A
               E	           999BF
               E	           411BE
               D	          280D8E
               D	          271B02
               D	          2672D0
               D	          143850
               D	           96E85
               D	           3758A
               C	          29C812
               C	          29A264
               C	          27D479
               C	          27A4AB
               C	          27A43E
               C	          1F307B
               C	           96DA9
               C	           9655C
               C	           94933
               C	           7DF98
               C	           6534E
               C	           34F27
               B	          2D5067
               B	          2863F3
               B	          2588DA
               B	          23B641
               B	          22AD21
               B	          1EDD11
               B	          1DF732
               B	          1A3151
               B	           869E0
               B	           3C23F
               B	           35FE7
               B	            52AE
               A	          252329
               A	          2444A7
               A	          216934
               A	          201584
               A	          1D2B88
               A	          1CE37D
               A	          16B6BA
               A	          124572
               A	           B5348
               A	           A87CB
               A	           A5A94
               A	           93E4F
               A	           5417C
               A	           45244
               A	           3E360
               A	           3B35E
               A	           3AC1F
               A	           28A8A
               9	          2FE088
               9	          2EEB16
               9	          2EBCBD
               9	          2D3027
               9	          299CBD
               9	          280B97
               9	          26F6CD
               9	          25E5F7
               9	          259845
               9	          24C9C2
               9	          209871
               9	          1A60C2
               9	          18A130
               9	          16A179
               9	          110B4B
               9	          1033DB
               9	          103215
               9	           E5C83
               9	           BEF9C
               9	           B7EC4
               9	           B6D5F
               9	           A3EF7
               9	           96C5F
               9	           944C7
               9	           49591
               9	           3D3A7
               9	           3AACE
               9	           39B32
               9	           36474
               9	           255C8
               9	           1E7B7
               8	          2C8AB4
               8	          28BF9A
               8	          274B45
               8	          26D448
               8	          250009
               8	          2473E2
               8	          22B699
               8	          1F88D7
               8	          1E5309
               8	          1BCCAA
               8	          1A2E7B
               8	          192D7A
               8	          17E6F7
               8	          172C00
               8	          15B8FD
               8	          15533D
               8	          14C317
               8	          1242C4
               8	           DE510
               8	           BE39D
               8	           BE389
               8	           AE2AB
               8	           94C96
               8	           4875E
               8	           45FAC
               8	           3C4DD
               8	           39052
               8	           35E51
               8	           321B9
               8	           20741
               7	          28E302
               7	          28CD50
               7	          28BFC9
               7	          286097
               7	          280C64
               7	          27DBEC
               7	          25DD4E
               7	          257AD2
               7	          245EB3
               7	          2333AA
               7	          230633
               7	          228A52
               7	          2231E1
               7	          221563
               7	          21A7DD
               7	          217B8F
               7	          2063A9
               7	          202BDB
               7	          2009DE
               7	          1A511F
               7	          190238
               7	          17816A
               7	          15F152
               7	          155F65
               7	          15297C
               7	          106762
               7	           D20C6
               7	           A0CDC
               7	           969DF
               7	           9582A
               7	           66451
               7	           52877
               7	           4F51E
               7	           4CB66
               7	           475B9
               7	           30027
               7	           27B9E
               7	            9EFE
               6	          300C11
               6	          300116
               6	          2F005E
               6	          2DFE5F
               6	          2CF0E4
               6	          2CC8DF
               6	          2C8472
               6	          2BF635
               6	          2B7E1F
               6	          2A4DD0
               6	          299C85
               6	          298517
               6	          297E17
               6	          297B42
               6	          2940B8
               6	          28C221
               6	          288F3D
               6	          2863D6
               6	          27A2F2
               6	          278B13
               6	          2785DA
               6	          271AB6
               6	          270A8C
               6	          2691A8
               6	          260173
               6	          25F791
               6	          25DFE2
               6	          25D639
               6	          259C64
               6	          244F3B
               6	          23AFC9
               6	          23069F
               6	          210249
               6	          20AF95
               6	          203504
               6	          201F08
               6	          1FEE65
               6	          1FED7E
               6	          1CC498
               6	          1CA96F
               6	          1B65D4
               6	          1ACF39
               6	          199888
               6	          190DB7
               6	          167EB5
               6	          15E284
               6	          1595E8
               6	          13428F
               6	          12D6D3
               6	          11D385
               6	           FD851
               6	           EAE66
               6	           DB5C3
               6	           D6A5F
               6	           D207A
               6	           B33F8
               6	           B1264
               6	           99CED
               6	           996F3
               6	           996C4
               6	           976AD
               6	           945A6
               6	           94505
               6	           941B9
               6	           9417B
               6	           83197
               6	           748A3
               6	           5CD6B
               6	           540A9
               6	           4BB31
               6	           45884
               6	           40970
               6	           3FF2F
               6	           3E16B
               6	           31B64
               6	           3062B
               6	           28B4F
               6	           20A40
               5	          2FD0AA
               5	          2F8A17
               5	          2F2771
               5	          2F1F09
               5	          2DE34E
               5	          2DBE39
               5	          2CC849
               5	          2C9FBC
               5	          2C248F
               5	          2C019C
               5	          2B7DB7
               5	          2ACB5C
               5	          2A9F03
               5	          29A4E3
               5	          29A116
               5	          297BE7
               5	          2956D7
               5	          294EA6
               5	          294A82
               5	          29408D
               5	          290317
               5	          28DE56
               5	          28DBAE
               5	          28C092
               5	          287626
               5	          280E9E
               5	          279FDA
               5	          275F88
               5	          268683
               5	          262F88
               5	          25EC99
               5	          25C797
               5	          259F46
               5	          23B8F7
               5	          23B779
               5	          232275
               5	          23036B
               5	          22F995
               5	          21C20F
               5	          213633
               5	          20E2B6
               5	          20D406
               5	          20B339
               5	          1FE28F
               5	          1F8F6C
               5	          1F3F57
               5	          1F3813
               5	          1E8DB4
               5	          1E3F43
               5	          1DED9D
               5	          1DD916
               5	          1DD781
               5	          1DCB7E
               5	          1D1649
               5	          1D01F2
               5	          1C8D35
               5	          1C0451
               5	          1C02EE
               5	          1BA16B
               5	          1B7760
               5	          1B380F
               5	          1B1DF5
               5	          1AA5D5
               5	          1A5BB6
               5	          1A50E0
               5	          193644
               5	          18D8D8
               5	          185DCE
               5	          17D611
               5	          1718DA
               5	          16B6F6
               5	          168894
               5	          1654EF
               5	          15DE88
               5	          15CAD2
               5	          15A033
               5	          158E45
               5	          156157
               5	          1513F6
               5	          14AC33
               5	          14ABB9
               5	          119F05
               5	          1135EC
               5	          102E8F
               5	           F83F5
               5	           F82DD
               5	           EFDB3
               5	           E7060
               5	           DE523
               5	           D3CBF
               5	           D180B
               5	           CCB99
               5	           BBB34
               5	           B8440
               5	           B80D9
               5	           B7D25
               5	           B07C7
               5	           ADE75
               5	           AC9E5
               5	           A5C44
               5	           A4B89
               5	           A1A4D
               5	           9F9E4
               5	           9BE55
               5	           98D57
               5	           98AF8
               5	           98A10
               5	           965A9
               5	           94ACD
               5	           949F9
               5	           9488D
               5	           94638
               5	           945EC
               5	           94583
               5	           79407
               5	           6CE0D
               5	           61541
               5	           607F1
               5	           5DE5F
               5	           59CA3
               5	           55D69
               5	           51358
               5	           4D05A
               5	           4CCFA
               5	           4C982
               5	           4A61B
               5	           4933B
               5	           4512D
               5	           3D8D4
               5	           3C1AC
               5	           3BAC5
               5	           3AB14
               5	           38FD6
               5	           31665
               5	           27BC8
               5	           26686
               5	           2585D
               5	           22691
               5	           1B820
               5	            2A9E
               5	            156D
               4	          3002DE
               4	          2FCFB4
               4	          2FCE3E
               4	          2FC99F
               4	          2FC702
               4	          2FB97D
               4	          2FAAA2
               4	          2F8CC5
               4	          2F881A
               4	          2F5927
               4	          2F4875
               4	          2F1C00
               4	          2EC2A5
               4	          2EBA2D
               4	          2E7E79
               4	          2E5D27
               4	          2DC207
               4	          2DB237
               4	          2DA177
               4	          2D4320
               4	          2D1D17
               4	          2CEE09
               4	          2CD5C9
               4	          2C690E
               4	          2C4686
               4	          2C0C9C
               4	          2B865A
               4	          2B3E43
               4	          2B0479
               4	          2AB6F4
               4	          2AB508
               4	          2A72F4
               4	          2A5E0A
               4	          29BC48
               4	          295554
               4	          2953AF
               4	          294F8D
               4	          294E10
               4	          294DE9
               4	          29435B
               4	          28FDF7
               4	          28DC24
               4	          28D878
               4	          28D3CA
               4	          28D32C
               4	          28C519
               4	          28C2A9
               4	          28C039
               4	          28BB7E
               4	          28B8C6
               4	          286447
               4	          286205
               4	          286122
               4	          285E0D
               4	          285C8E
               4	          2832E7
               4	          2818A7
               4	          280D76
               4	          280468
               4	          27C435
               4	          27C315
               4	          27B9EB
               4	          27A3F6
               4	          27A111
               4	          274FF1
               4	          274E38
               4	          274996
               4	          27494C
               4	          2744AA
               4	          270AE4
               4	          27042D
               4	          26FAA6
               4	          26EB85
               4	          26B509
               4	          26B060
               4	          265380
               4	          260386
               4	          25DCB7
               4	          25C594
               4	          25C2EC
               4	          25B394
               4	          2588A9
               4	          256B53
               4	          2539D9
               4	          2512DE
               4	          24D777
               4	          24B387
               4	          2489C5
               4	          24753B
               4	          2473FF
               4	          246C40
               4	          237B2D
               4	          2352C6
               4	          2350B3
               4	          22F633
               4	          22DFF2
               4	          2295E9
               4	          2286A6
               4	          22834C
               4	          224D49
               4	          221AD9
               4	          21DA4A
               4	          21BB03
               4	          21B4BC
               4	          21A86C
               4	          219F43
               4	          217F9F
               4	          213656
               4	          21193B
               4	          210B78
               4	          20D5D0
               4	          20D452
               4	          20BA60
               4	          2055C2
               4	          2019EB
               4	          201413
               4	          2011BC
               4	          1FDB3F
               4	          1FA136
               4	          1F81C5
               4	          1F6521
               4	          1F442E
               4	          1F1E15
               4	          1F16C4
               4	          1EFCFB
               4	          1EF03A
               4	          1EE64D
               4	          1E80FE
               4	          1E7924
               4	          1E70D3
               4	          1E4AB2
               4	          1E2E4E
               4	          1E2938
               4	          1D8F69
               4	          1D8DE1
               4	          1D4B15
               4	          1CF3A9
               4	          1CEFAE
               4	          1CE8C0
               4	          1C9C4B
               4	          1C8DDE
               4	          1C77F2
               4	          1C68A4
               4	          1C1E2A
               4	          1BFEB4
               4	          1BBB7B
               4	          1BA1E6
               4	          1B6826
               4	          1B664C
               4	          1B37EC
               4	          1B3672
               4	          1B3432
               4	          1B1ECD
               4	          1AE5CF
               4	          1AE57D
               4	          1ADAB5
               4	          1ACF85
               4	          1AA523
               4	          1A8D7F
               4	          1A8C0A
               4	          1A7BD4
               4	          1A26FD
               4	          1998A9
               4	          197C3A
               4	          19750B
               4	          19463C
               4	          18D9D8
               4	          18196E
               4	          1814B6
               4	          17E2BC
               4	          17DE18
               4	          173C9A
               4	          1739F4
               4	          17134C
               4	          1712F4
               4	          16B1A3
               4	          1680B7
               4	          161040
               4	          15F09E
               4	          15E8DB
               4	          15E234
               4	          15DFC6
               4	          15D5AD
               4	          158134
               4	          153C03
               4	          152CB7
               4	          150473
               4	          149364
               4	          147992
               4	          141205
               4	          140A2D
               4	          13BD24
               4	          132084
               4	          131F36
               4	          131AEE
               4	          130DD5
               4	          12E7ED
               4	          12310D
               4	          11B723
               4	          11A9D2
               4	          10A1F6
               4	          1067DD
               4	          1033C1
               4	          101A95
               4	           FA194
               4	           F7BFF
               4	           F0991
               4	           F018C
               4	           EFE20
               4	           E9E98
               4	           E5914
               4	           E57C1
               4	           E471F
               4	           D9904
               4	           D8914
               4	           D5366
               4	           D434C
               4	           C9F9E
               4	           C43EB
               4	           C144E
               4	           C08B9
               4	           C0730
               4	           BEF74
               4	           BCC25
               4	           B827C
               4	           B81D2
               4	           B7860
               4	           B43A1
               4	           B12EA
               4	           B1024
               4	           AE5DD
               4	           ADE1B
               4	           AA569
               4	           A5AE8
               4	           A183A
               4	           9FA0B
               4	           9CCE3
               4	           9AA73
               4	           9A36D
               4	           99776
               4	           9903A
               4	           985CF
               4	           985A4
               4	           97FF6
               4	           97DFD
               4	           97CCA
               4	           97985
               4	           9793F
               4	           96B34
               4	           95F92
               4	           949D6
               4	           94980
               4	           93FAD
               4	           9360B
               4	           92A4C
               4	           92752
               4	           8EF31
               4	           8E59A
               4	           8C82A
               4	           85A7E
               4	           7CACF
               4	           67309
               4	           67091
               4	           64CAB
               4	           5F3A8
               4	           5C2D3
               4	           59C20
               4	           57CC2
               4	           57B6F
               4	           57ACD
               4	           5605F
               4	           55B48
               4	           55539
               4	           554D4
               4	           550B1
               4	           54F27
               4	           54768
               4	           54356
               4	           512A5
               4	           4DB33
               4	           4AD60
               4	           4AA6E
               4	           4A928
               4	           47B97
               4	           47656
               4	           47045
               4	           43EC9
               4	           4303A
               4	           3F89F
               4	           3ECDF
               4	           3E148
               4	           3C958
               4	           3C059
               4	           3BA71
               4	           39B7E
               4	           39AF0
               4	           39A1A
               4	           39985
               4	           394A8
               4	           3906C
               4	           31D21
               4	           319AB
               4	           31870
               4	           30CB9
               4	           2FF5E
               4	           2F2D9
               4	           2E92C
               4	           2D6DF
               4	           28B96
               4	           27B76
               4	           25070
               4	           1043E
               4	            378D
               4	            3659
               3	          2FEEAE
               3	          2FCC4D
               3	          2FCA0C
               3	          2FC338
               3	          2FC0C1
               3	          2FBD86
               3	          2FB0BD
               3	          2F2DD6
               3	          2F266C
               3	          2F244E
               3	          2F242B
               3	          2F2402
               3	          2F1EDE
               3	          2EF47D
               3	          2EF34C
               3	          2EAD25
               3	          2E9329
               3	          2E861B
               3	          2E8594
               3	          2E764C
               3	          2E7627
               3	          2E75D7
               3	          2E5372
               3	          2E27CE
               3	          2E1964
               3	          2E0B12
               3	          2D9217
               3	          2D7EBA
               3	          2D1559
               3	          2D0EB7
               3	          2D0696
               3	          2CF1E5
               3	          2CEE1E
               3	          2CEDF9
               3	          2CE290
               3	          2CC893
               3	          2CB9FE
               3	          2C95A5
               3	          2C91AC
               3	          2C73AD
               3	          2C6577
               3	          2C5CF6
               3	          2C5CE0
               3	          2C3E09
               3	          2C1019
               3	          2BB60F
               3	          2BAF91
               3	          2B8441
               3	          2B7F89
               3	          2B65A0
               3	          2B5F3C
               3	          2B5C26
               3	          2B0595
               3	          2AE401
               3	          2AC8D1
               3	          2AB8BA
               3	          2AB4ED
               3	          2AA042
               3	          2A4592
               3	          2A1B0C
               3	          2A0E4A
               3	          2A0CF1
               3	          2A056D
               3	          2A0152
               3	          29F1FA
               3	          29CCC5
               3	          29C01F
               3	          29BB21
               3	          299BB2
               3	          298D97
               3	          2989AB
               3	          2985FF
               3	          298587
               3	          2980E2
               3	          297DB2
               3	          297B61
               3	          297267
               3	          29574C
               3	          295666
               3	          294F19
               3	          2941B2
               3	          29418F
               3	          294170
               3	          2940D2
               3	          2933AF
               3	          2918DF
               3	          291786
               3	          2912AF
               3	          28EAA7
               3	          28D44A
               3	          28D238
               3	          28D20E
               3	          28D1AC
               3	          28CC50
               3	          28B829
               3	          28B654
               3	          28AF77
               3	          2896CD
               3	          28942B
               3	          2879E2
               3	          2879BA
               3	          286464
               3	          28640D
               3	          284EBC
               3	          284814
               3	          2827D9
               3	          282758
               3	          2812A8
               3	          281143
               3	          28043B
               3	          27FF89
               3	          27FA52
               3	          27F618
               3	          27E39A
               3	          27D69E
               3	          27D2E0
               3	          27CF83
               3	          27CF17
               3	          27CECC
               3	          27BE78
               3	          27B03D
               3	          27AF52
               3	          27A416
               3	          27A177
               3	          279EE9
               3	          277F1F
               3	          2724F0
               3	          272168
               3	          271CDB
               3	          271B53
               3	          2716CE
               3	          2716AD
               3	          27168A
               3	          270FF9
               3	          270C35
               3	          270A13
               3	          26FD5E
               3	          26FAD7
               3	          26F49D
               3	          26F457
               3	          26E9AC
               3	          26E2AD
               3	          26CD9D
               3	          26C1C3
               3	          26B4F6
               3	          269C77
               3	          268DDA
               3	          267163
               3	          265548
               3	          2610D5
               3	          260CDC
               3	          25F6EA
               3	          25F62A
               3	          25F593
               3	          25EFF9
               3	          25EFB5
               3	          25EF46
               3	          25E5BC
               3	          25E2BD
               3	          25E006
               3	          25DF56
               3	          25C4AC
               3	          25C321
               3	          25BF9A
               3	          259AB5
               3	          2531C2
               3	          24DB32
               3	          24D918
               3	          24B142
               3	          248C95
               3	          247F00
               3	          245ED8
               3	          2444F9
               3	          23D05B
               3	          23A961
               3	          23A3B5
               3	          239A23
               3	          23967A
               3	          2366A3
               3	          232D40
               3	          2310FB
               3	          2304AB
               3	          230423
               3	          22EBFC
               3	          22E537
               3	          22D615
               3	          22D197
               3	          22CB4C
               3	          22C6EE
               3	          22AA03
               3	          228B61
               3	          22846E
               3	          227FFB
               3	          227FD4
               3	          22661F
               3	          226017
               3	          2253C2
               3	          2248A1
               3	          22479E
               3	          222FD3
               3	          2228FD
               3	          22279C
               3	          222046
               3	          220BB9
               3	          21F0C4
               3	          21D5B8
               3	          21D2FE
               3	          21C8FA
               3	          21BF88
               3	          21B267
               3	          217BBA
               3	          216A9A
               3	          213FF9
               3	          213F18
               3	          213755
               3	          212FF5
               3	          212E3D
               3	          2105DD
               3	          20E90C
               3	          20E01D
               3	          20D7C9
               3	          20D61F
               3	          20C97C
               3	          20BF10
               3	          20A999
               3	          20A433
               3	          2086AD
               3	          2080B5
               3	          206894
               3	          205B09
               3	          20568F
               3	          203C10
               3	          203925
               3	          2035DD
               3	          202C6C
               3	          201D1D
               3	          2017EB
               3	          20085B
               3	          200605
               3	          2000A5
               3	          1FF35D
               3	          1FE024
               3	          1FDB58
               3	          1FD9D4
               3	          1FD47F
               3	          1FC6FB
               3	          1FBEA2
               3	          1FBE4C
               3	          1FB880
               3	          1FB236
               3	          1FAF98
               3	          1F9E2F
               3	          1F8906
               3	          1F7FBC
               3	          1F6118
               3	          1F5466
               3	          1F52D8
               3	          1F3B72
               3	          1F2EC9
               3	          1F1D15
               3	          1F19DC
               3	          1F02CF
               3	          1F024A
               3	          1EF33D
               3	          1EF30E
               3	          1EF1B9
               3	          1EE2A1
               3	          1ED442
               3	          1EC1E6
               3	          1EBFFB
               3	          1EB8A6
               3	          1EAA07
               3	          1E8C47
               3	          1E8C2A
               3	          1E8C05
               3	          1E7753
               3	          1E5C59
               3	          1E53B7
               3	          1E2A73
               3	          1E101A
               3	          1E04E7
               3	          1DEF78
               3	          1DE8F9
               3	          1DE81E
               3	          1DDB31
               3	          1DDAFC
               3	          1DB511
               3	          1DA2D9
               3	          1D9CD4
               3	          1D981F
               3	          1D8A8C
               3	          1D781B
               3	          1D6DD9
               3	          1D5F12
               3	          1D5D9A
               3	          1D5755
               3	          1D5569
               3	          1D54DC
               3	          1D54AF
               3	          1D548A
               3	          1D438B
               3	          1D2FFB
               3	          1D2EB9
               3	          1D08C2
               3	          1D0483
               3	          1CE3B6
               3	          1CD71D
               3	          1CD6C7
               3	          1CD67D
               3	          1CD658
               3	          1CBB21
               3	          1C944E
               3	          1C93F8
               3	          1C8DA2
               3	          1C8172
               3	          1C7961
               3	          1C78C0
               3	          1C5A93
               3	          1C1BCC
               3	          1C1A42
               3	          1C101C
               3	          1C084C
               3	          1C0539
               3	          1C04C6
               3	          1C03EA
               3	          1C00B7
               3	          1BFA42
               3	          1B918A
               3	          1B693F
               3	          1B50EA
               3	          1B4CC2
               3	          1B3445
               3	          1B2714
               3	          1B1EF2
               3	          1B116F
               3	          1B0DF0
               3	          1AFD3A
               3	          1AF98E
               3	          1AF5C7
               3	          1ACBF4
               3	          1AB1D8
               3	          1AA752
               3	          1A9DCB
               3	          1A8D2A
               3	          1A5621
               3	          1A5154
               3	          1A4BD7
               3	          1A1378
               3	          1A094D
               3	          19FBE3
               3	          19E65C
               3	          19E4DA
               3	          19D28B
               3	          19CEFB
               3	          19CDE1
               3	          19CD53
               3	          19BF3C
               3	          19BF11
               3	          199AB7
               3	          199867
               3	          1997E4
               3	          1989D0
               3	          1955C7
               3	          195335
               3	          195304
               3	          1952CD
               3	          19495E
               3	          1936B5
               3	          193667
               3	          1935CD
               3	          19334C
               3	          1930A8
               3	          192370
               3	          191D34
               3	          190B40
               3	          190269
               3	          18D73F
               3	          18460F
               3	          1841A2
               3	          183600
               3	          181D3C
               3	          17E6BB
               3	          17D799
               3	          17BE95
               3	          178DF0
               3	          17891B
               3	          178193
               3	          177E3B
               3	          177DC4
               3	          1774F2
               3	          1751EA
               3	          171F59
               3	          171986
               3	          171765
               3	          1711A5
               3	          170B37
               3	          170707
               3	          16F013
               3	          16E37F
               3	          16C604
               3	          16C02C
               3	          16A6ED
               3	          168FC5
               3	          168669
               3	          166CFB
               3	          166ACB
               3	          1669A1
               3	          16465B
               3	          163F95
               3	          163C49
               3	          1634A3
               3	          162ABD
               3	          161683
               3	          161389
               3	          1611E6
               3	          160FFC
               3	          1602F4
               3	          15DEA8
               3	          15D6EC
               3	          15D27C
               3	          15D0E6
               3	          15CDAD
               3	          15B580
               3	          15A419
               3	          15A268
               3	          158C2D
               3	          158A5F
               3	          154C1B
               3	          15287E
               3	          1525EA
               3	          152592
               3	          1512C1
               3	          1509AD
               3	          14EED9
               3	          14DFD6
               3	          14DEC2
               3	          14BE89
               3	          14BAA8
               3	          14AE66
               3	          14ABF6
               3	          14713E
               3	          14624D
               3	          141BC8
               3	          1414B5
               3	          13C7E1
               3	          139A35
               3	          139123
               3	          131C80
               3	          130051
               3	          12E07A
               3	          12B1E2
               3	          12AB2D
               3	          12AA81
               3	          12A5B0
               3	          129D9F
               3	          1282B8
               3	          12726C
               3	          125C05
               3	          124456
               3	          123C79
               3	          122DA1
               3	          120A52
               3	          11FA2C
               3	          11AB4A
               3	          118222
               3	          117BF6
               3	          116CB2
               3	          116559
               3	          111CF6
               3	          111B47
               3	          10640C
               3	          105ED6
               3	          103DD3
               3	          103C52
               3	          1035E3
               3	          103435
               3	          103202
               3	          101CA0
               3	          101C82
               3	          100D35
               3	           FF75E
               3	           FE183
               3	           FD73B
               3	           FD1E1
               3	           F9EC4
               3	           F778E
               3	           F6B03
               3	           F58AB
               3	           F2C12
               3	           F1A15
               3	           EFDD6
               3	           EEE17
               3	           ECE78
               3	           E9F82
               3	           E70AC
               3	           E5D50
               3	           E583E
               3	           E4B78
               3	           E323A
               3	           E1E89
               3	           E0C42
               3	           DD642
               3	           DD114
               3	           DD0C8
               3	           DC61A
               3	           DBB4F
               3	           DB7A8
               3	           DB62C
               3	           DAEEB
               3	           D5E40
               3	           D58E3
               3	           D4425
               3	           D4111
               3	           D392B
               3	           D3578
               3	           D215C
               3	           CD273
               3	           CBD0A
               3	           CBA2D
               3	           CAF53
               3	           CA75D
               3	           C8B7A
               3	           C769A
               3	           C724A
               3	           C496E
               3	           C3BDE
               3	           C387E
               3	           C0149
               3	           BFF02
               3	           BE9E3
               3	           BE4FE
               3	           BDDEE
               3	           BD08D
               3	           BC885
               3	           BC2C4
               3	           B82AF
               3	           B816A
               3	           B7DFC
               3	           B3CA6
               3	           B1292
               3	           B0843
               3	           AEF58
               3	           ADC0A
               3	           AC394
               3	           ABDBE
               3	           AAEAC
               3	           AA2F2
               3	           A92DB
               3	           A82B5
               3	           A7AFD
               3	           A69C2
               3	           A6538
               3	           A5422
               3	           A5359
               3	           A2C75
               3	           9F264
               3	           9EAEC
               3	           9E063
               3	           9C2A9
               3	           9AD09
               3	           99F2F
               3	           993E0
               3	           98F56
               3	           98E3F
               3	           9867B
               3	           985FA
               3	           98367
               3	           97EBE
               3	           97B69
               3	           977F6
               3	           97663
               3	           975F0
               3	           97445
               3	           9717B
               3	           97158
               3	           97106
               3	           96D7C
               3	           96C38
               3	           96B13
               3	           96A02
               3	           9685A
               3	           96470
               3	           962C0
               3	           9612C
               3	           95DEA
               3	           95B7E
               3	           95A77
               3	           957AD
               3	           956D6
               3	           9544F
               3	           951A4
               3	           94AAA
               3	           94566
               3	           940A2
               3	           93D88
               3	           93D21
               3	           92C33
               3	           92683
               3	           92639
               3	           92621
               3	           91681
               3	           90085
               3	           8FF34
               3	           8FD7F
               3	           8F65E
               3	           8EFB7
               3	           8D3F4
               3	           8CF1B
               3	           8B0B0
               3	           89A32
               3	           8817D
               3	           87134
               3	           8695F
               3	           85F34
               3	           85DD7
               3	           842C4
               3	           83162
               3	           81DB2
               3	           81ABB
               3	           80F80
               3	           80E0B
               3	           7E6FA
               3	           7DACC
               3	           7CF7A
               3	           7AD64
               3	           7AD0E
               3	           7724B
               3	           7637A
               3	           75B66
               3	           745BE
               3	           74201
               3	           74096
               3	           73CF4
               3	           72BBF
               3	           6EDEC
               3	           6E316
               3	           6BA75
               3	           6BA4C
               3	           6A7D1
               3	           697CD
               3	           632DE
               3	           62B26
               3	           60806
               3	           5E333
               3	           5DAD6
               3	           5D1A9
               3	           5B5F7
               3	           5B0C8
               3	           5AE53
               3	           59F54
               3	           59DAE
               3	           59B1D
               3	           5985D
               3	           58DD2
               3	           58610
               3	           57F70
               3	           57E36
               3	           57D60
               3	           57B48
               3	           57099
               3	           5706E
               3	           56940
               3	           56213
               3	           55EF7
               3	           5579F
               3	           553B5
               3	           551D9
               3	           55055
               3	           5502C
               3	           54FDA
               3	           54863
               3	           5453A
               3	           5383E
               3	           53133
               3	           52A3C
               3	           527C2
               3	           51797
               3	           5160C
               3	           4EBC4
               3	           4DFEC
               3	           4DE9D
               3	           4CDA0
               3	           4C759
               3	           4C317
               3	           4B43D
               3	           4A99B
               3	           4A07C
               3	           49DB6
               3	           496E3
               3	           49611
               3	           494D2
               3	           48891
               3	           4863E
               3	           47BFD
               3	           47B3D
               3	           46C17
               3	           45A7D
               3	           457F1
               3	           456AA
               3	           452B2
               3	           44FC6
               3	           44E50
               3	           4489F
               3	           43BE5
               3	           43104
               3	           424A1
               3	           3FEAB
               3	           3F94B
               3	           3DA62
               3	           3D43B
               3	           3CB9C
               3	           3C03A
               3	           3BB19
               3	           3BA23
               3	           3B437
               3	           3ABAC
               3	           3A60E
               3	           39ACB
               3	           39AA8
               3	           39A5E
               3	           399D9
               3	           39929
               3	           3983D
               3	           39486
               3	           39150
               3	           390D6
               3	           3886E
               3	           36636
               3	           35FC1
               3	           34AD3
               3	           3483D
               3	           333A3
               3	           3326A
               3	           3315F
               3	           32D6B
               3	           327CE
               3	           31C5B
               3	           3198C
               3	           3169F
               3	           30B1A
               3	           3064D
               3	           2EB64
               3	           2E331
               3	           2E1B2
               3	           2E04B
               3	           2D93D
               3	           2A4FF
               3	           29F41
               3	           29283
               3	           26CCF
               3	           26BC5
               3	           25FA7
               3	           2466D
               3	           2434F
               3	           22FD4
               3	           22523
               3	           21F1F
               3	           21DA2
               3	           20AB2
               3	           1A5F0
               3	           16B45
               3	           15A17
               3	           157ED
               3	           1574B
               3	           137F8
               3	           118C3
               3	           113AD
               3	           112D4
               3	           103E4
               3	            AED9
               3	            84C6
               3	            2F70
               3	            2C85
               3	            24F1
               3	            154C
               2	          300C71
               2	          300AEC
               2	          300A6C
               2	          300472
               2	          2FFBFE
               2	          2FF592
               2	          2FEF09
               2	          2FE9D4
               2	          2FE98E
               2	          2FE662
               2	          2FE2AC
               2	          2FD8D6
               2	          2FD02A
               2	          2FC9B0
               2	          2FC976
               2	          2FC5D4
               2	          2FC3FB
               2	          2FC2EE
               2	          2FC2CB
               2	          2FBD24
               2	          2FB800
               2	          2FB6CB
               2	          2FB64A
               2	          2FB5D2
               2	          2FB31E
               2	          2FB302
               2	          2FA890
               2	          2FA1A0
               2	          2FA174
               2	          2F9DC2
               2	          2F9CAE
               2	          2F98A1
               2	          2F91E7
               2	          2F8E38
               2	          2F852E
               2	          2F847D
               2	          2F7361
               2	          2F72D5
               2	          2F66A9
               2	          2F638B
               2	          2F6070
               2	          2F5EBA
               2	          2F5E29
               2	          2F5D06
               2	          2F5C07
               2	          2F5A0B
               2	          2F4FFE
               2	          2F4E42
               2	          2F4CCB
               2	          2F4330
               2	          2F3FC4
               2	          2F3D44
               2	          2F3694
               2	          2F2E04
               2	          2F2B38
               2	          2F2972
               2	          2F2788
               2	          2F2740
               2	          2F271B
               2	          2F268C
               2	          2F2330
               2	          2F214C
               2	          2F2125
               2	          2F1F21
               2	          2F1D16
               2	          2F1929
               2	          2F101D
               2	          2F0AD7
               2	          2F078C
               2	          2F0711
               2	          2F0521
               2	          2F014A
               2	          2EFB1C
               2	          2EFA6F
               2	          2EF8F8
               2	          2EF80C
               2	          2EEEF8
               2	          2EEA36
               2	          2EE974
               2	          2ED8D7
               2	          2ED7F0
               2	          2ED793
               2	          2ED4F4
               2	          2ED439
               2	          2ECD35
               2	          2EC753
               2	          2EC6CE
               2	          2EC40C
               2	          2EC2DA
               2	          2EC1B4
               2	          2EBDC1
               2	          2EBB96
               2	          2EBAEA
               2	          2EB8C7
               2	          2EB613
               2	          2EB57F
               2	          2EB269
               2	          2EAF32
               2	          2EAE62
               2	          2EA081
               2	          2E9D01
               2	          2E9AB8
               2	          2E992E
               2	          2E9678
               2	          2E962A
               2	          2E925C
               2	          2E90DD
               2	          2E8E10
               2	          2E8B5B
               2	          2E8B02
               2	          2E8506
               2	          2E83DD
               2	          2E8370
               2	          2E7F8D
               2	          2E7E23
               2	          2E7B76
               2	          2E76BE
               2	          2E738E
               2	          2E732E
               2	          2E6CF5
               2	          2E6C4B
               2	          2E665C
               2	          2E660F
               2	          2E6320
               2	          2E58FC
               2	          2E570D
               2	          2E5633
               2	          2E55F3
               2	          2E4FAD
               2	          2E4CE4
               2	          2E4A2D
               2	          2E49CF
               2	          2E441D
               2	          2E3DDD
               2	          2E37D4
               2	          2E3259
               2	          2E292E
               2	          2E24F6
               2	          2E23B3
               2	          2E21A2
               2	          2E1DEB
               2	          2E1A66
               2	          2E0724
               2	          2E053E
               2	          2DFDF5
               2	          2DFB89
               2	          2DF8C7
               2	          2DF7A8
               2	          2DE6FA
               2	          2DD73C
               2	          2DCDB6
               2	          2DBE0C
               2	          2DB7CB
               2	          2DB4FA
               2	          2DAFDA
               2	          2DA37F
               2	          2DA19D
               2	          2DA15C
               2	          2D9CF0
               2	          2D93FA
               2	          2D930B
               2	          2D927D
               2	          2D856A
               2	          2D7ECC
               2	          2D7D84
               2	          2D7969
               2	          2D6F70
               2	          2D6D3E
               2	          2D6D16
               2	          2D67AA
               2	          2D65FC
               2	          2D5D2C
               2	          2D5878
               2	          2D5814
               2	          2D57EA
               2	          2D5685
               2	          2D5390
               2	          2D521F
               2	          2D4FE9
               2	          2D4FB2
               2	          2D4C4A
               2	          2D49BB
               2	          2D4763
               2	          2D446B
               2	          2D3C81
               2	          2D2DAB
               2	          2D27CB
               2	          2D1DB0
               2	          2D16DA
               2	          2D1299
               2	          2D11D9
               2	          2D0E9E
               2	          2D0C40
               2	          2D0886
               2	          2D07F1
               2	          2D0646
               2	          2D04F4
               2	          2CFEBF
               2	          2CFE78
               2	          2CF88F
               2	          2CF1C7
               2	          2CEEE3
               2	          2CEE71
               2	          2CE582
               2	          2CE309
               2	          2CE23B
               2	          2CDFE9
               2	          2CDC5C
               2	          2CD5AA
               2	          2CCC1C
               2	          2CCAD0
               2	          2CC709
               2	          2CBF47
               2	          2CBE82
               2	          2CBB3C
               2	          2CB61B
               2	          2CB3E0
               2	          2CB3B5
               2	          2CB314
               2	          2CAF67
               2	          2CAEC8
               2	          2CA4D0
               2	          2CA221
               2	          2CA1BF
               2	          2C9F51
               2	          2C991C
               2	          2C97DE
               2	          2C96F6
               2	          2C96A8
               2	          2C9530
               2	          2C950E
               2	          2C9286
               2	          2C9242
               2	          2C91CF
               2	          2C9189
               2	          2C8B02
               2	          2C8ACF
               2	          2C8353
               2	          2C7985
               2	          2C75C7
               2	          2C708A
               2	          2C6A20
               2	          2C6055
               2	          2C4D6A
               2	          2C4B04
               2	          2C4AA3
               2	          2C483F
               2	          2C473C
               2	          2C41FD
               2	          2C3E57
               2	          2C3BC1
               2	          2C3B46
               2	          2C3B1C
               2	          2C36D4
               2	          2C35E0
               2	          2C2FD2
               2	          2C2CD1
               2	          2C288D
               2	          2C245B
               2	          2C242A
               2	          2C2203
               2	          2C1FBF
               2	          2C1DE2
               2	          2C1470
               2	          2C1098
               2	          2C0FF0
               2	          2C0E01
               2	          2C0B8F
               2	          2C0958
               2	          2C0533
               2	          2C0470
               2	          2BFEB4
               2	          2BFD2B
               2	          2BF600
               2	          2BECE3
               2	          2BE9E2
               2	          2BE98C
               2	          2BE12A
               2	          2BDB4D
               2	          2BD74B
               2	          2BD348
               2	          2BD16C
               2	          2BBE0C
               2	          2BBC9B
               2	          2BB6EE
               2	          2BB3EA
               2	          2BB3C0
               2	          2BB333
               2	          2B92E2
               2	          2B9022
               2	          2B8A81
               2	          2B8149
               2	          2B8035
               2	          2B7E4E
               2	          2B7C3F
               2	          2B7C0E
               2	          2B7BDA
               2	          2B7B9C
               2	          2B7A2D
               2	          2B70B3
               2	          2B6FEF
               2	          2B6F03
               2	          2B6E34
               2	          2B6DC2
               2	          2B6BB0
               2	          2B68BF
               2	          2B65C9
               2	          2B5A00
               2	          2B5485
               2	          2B53E4
               2	          2B4816
               2	          2B47E6
               2	          2B364A
               2	          2B29D7
               2	          2B27F2
               2	          2B2429
               2	          2B17D1
               2	          2B10D3
               2	          2B0450
               2	          2AFFA2
               2	          2AF78A
               2	          2AF48A
               2	          2AF38D
               2	          2AF13F
               2	          2AD47C
               2	          2AD442
               2	          2AD376
               2	          2AC8AB
               2	          2AC6F0
               2	          2AC2CC
               2	          2AB690
               2	          2AB20F
               2	          2AAE4C
               2	          2AA8CF
               2	          2AA366
               2	          2AA2CB
               2	          2AA23C
               2	          2A8F79
               2	          2A8D8F
               2	          2A8A8C
               2	          2A8997
               2	          2A862E
               2	          2A7942
               2	          2A7552
               2	          2A71A3
               2	          2A6C0E
               2	          2A647C
               2	          2A6381
               2	          2A5FD2
               2	          2A5C98
               2	          2A5A52
               2	          2A5577
               2	          2A50AA
               2	          2A501D
               2	          2A4F44
               2	          2A4B4F
               2	          2A4A3B
               2	          2A3E8B
               2	          2A3DBE
               2	          2A34E6
               2	          2A28FD
               2	          2A2750
               2	          2A0F9D
               2	          2A0EEF
               2	          2A08B4
               2	          2A077D
               2	          29F616
               2	          29F582
               2	          29F374
               2	          29F28B
               2	          29F15E
               2	          29EF0B
               2	          29EE46
               2	          29EE21
               2	          29D99A
               2	          29CC4C
               2	          29C768
               2	          29C739
               2	          29C214
               2	          29C1FA
               2	          29C122
               2	          29C032
               2	          29BE0C
               2	          29BDC2
               2	          29BCE5
               2	          29BC22
               2	          29BBF9
               2	          29B9F2
               2	          29B8E6
               2	          29AC46
               2	          29A9AD
               2	          29A5E9
               2	          29A242
               2	          29A1F0
               2	          29A140
               2	          298EBB
               2	          298AFE
               2	          298983
               2	          298959
               2	          298933
               2	          29890B
               2	          2988BB
               2	          298849
               2	          298825
               2	          2987DB
               2	          298791
               2	          2985A9
               2	          2981AF
               2	          298125
               2	          298103
               2	          2980A4
               2	          29801D
               2	          297E7B
               2	          297E3A
               2	          297DF6
               2	          297D91
               2	          297C55
               2	          297BC6
               2	          297B80
               2	          297B1F
               2	          29781D
               2	          2977EE
               2	          29768F
               2	          29760C
               2	          297303
               2	          297290
               2	          296D11
               2	          29674E
               2	          2958AD
               2	          295861
               2	          295771
               2	          2956FC
               2	          295685
               2	          2954FE
               2	          2954D9
               2	          2953FB
               2	          295342
               2	          29528B
               2	          295125
               2	          294E5A
               2	          294D1A
               2	          294C68
               2	          294BEF
               2	          294B78
               2	          294A5B
               2	          294A15
               2	          2949C5
               2	          29483D
               2	          2947A1
               2	          294133
               2	          29411B
               2	          2940EE
               2	          293DF9
               2	          293B64
               2	          293A9B
               2	          2933FD
               2	          2930D4
               2	          292C07
               2	          292B99
               2	          2929FC
               2	          292205
               2	          291EC0
               2	          291C2B
               2	          29160E
               2	          29135C
               2	          29106E
               2	          290125
               2	          28FB81
               2	          28EEAA
               2	          28E801
               2	          28E707
               2	          28E429
               2	          28E370
               2	          28E2BE
               2	          28DDEC
               2	          28D758
               2	          28D5EE
               2	          28D5C8
               2	          28D4BC
               2	          28D494
               2	          28D37A
               2	          28D260
               2	          28D1DA
               2	          28D064
               2	          28CFF2
               2	          28CD00
               2	          28CCA8
               2	          28CA9C
               2	          28C9C4
               2	          28C283
               2	          28C241
               2	          28BF1A
               2	          28BC94
               2	          28BC04
               2	          28B97A
               2	          28B7D7
               2	          28B33E
               2	          28B2F0
               2	          28B276
               2	          28B22E
               2	          28AD1D
               2	          28A792
               2	          289D5D
               2	          28933F
               2	          2888D5
               2	          288841
               2	          28814C
               2	          287B5E
               2	          287B08
               2	          287AE0
               2	          287714
               2	          287672
               2	          28746A
               2	          2873E6
               2	          287361
               2	          286ED7
               2	          286C7D
               2	          28675A
               2	          286738
               2	          2864F0
               2	          286137
               2	          2860BF
               2	          285FF1
               2	          285FC7
               2	          285F7B
               2	          285D90
               2	          28569E
               2	          285285
               2	          285003
               2	          284FDB
               2	          284F0F
               2	          284E46
               2	          284B45
               2	          284453
               2	          2840FB
               2	          283CFA
               2	          2832C8
               2	          28320F
               2	          282CEE
               2	          28259E
               2	          282332
               2	          282244
               2	          281A39
               2	          28187E
               2	          281373
               2	          281300
               2	          280FD1
               2	          280DBD
               2	          280DA7
               2	          28037A
               2	          27FB9C
               2	          27FAA2
               2	          27F968
               2	          27F8B6
               2	          27F5F4
               2	          27F4C0
               2	          27E51E
               2	          27E123
               2	          27DD45
               2	          27DB4B
               2	          27DAFA
               2	          27DAD8
               2	          27DA6B
               2	          27D9C9
               2	          27D95E
               2	          27D8BD
               2	          27D757
               2	          27D730
               2	          27D70E
               2	          27D55E
               2	          27D301
               2	          27D271
               2	          27D18D
               2	          27D056
               2	          27CE62
               2	          27CE40
               2	          27CD70
               2	          27CBF2
               2	          27CB9A
               2	          27CB27
               2	          27C611
               2	          27C4F6
               2	          27C38D
               2	          27C128
               2	          27BD88
               2	          27BBA9
               2	          27BB43
               2	          27BA52
               2	          27B89F
               2	          27B5BB
               2	          27B1E9
               2	          27AE67
               2	          27AE44
               2	          27ADF6
               2	          27AB80
               2	          27A7CD
               2	          27A63B
               2	          27A5E1
               2	          27A4D0
               2	          27A235
               2	          27A1BC
               2	          27A0EB
               2	          27A03F
               2	          27A01E
               2	          279FB9
               2	          279EC1
               2	          279DB4
               2	          279D87
               2	          279D0E
               2	          279C4D
               2	          279B04
               2	          279A6E
               2	          279A48
               2	          27999C
               2	          2797B7
               2	          2796D9
               2	          2793AA
               2	          279381
               2	          278DE1
               2	          278C96
               2	          278462
               2	          277ED8
               2	          277EAC
               2	          277D3A
               2	          277A85
               2	          27714B
               2	          27711C
               2	          277036
               2	          27700B
               2	          275ACC
               2	          27586D
               2	          2755C3
               2	          2751E7
               2	          274FBD
               2	          274AD4
               2	          2747F3
               2	          2745B4
               2	          274345
               2	          274219
               2	          27402C
               2	          2735E8
               2	          27356F
               2	          272EF2
               2	          2724A4
               2	          27247B
               2	          272075
               2	          271DC1
               2	          2715E1
               2	          271486
               2	          271228
               2	          27114B
               2	          270D63
               2	          270D15
               2	          270B4F
               2	          270919
               2	          2708BD
               2	          2707EC
               2	          2707C5
               2	          2705D9
               2	          27058D
               2	          270195
               2	          26FF9F
               2	          26FE45
               2	          26FC40
               2	          26FB06
               2	          26F395
               2	          26F2C3
               2	          26F18A
               2	          26EC35
               2	          26EBF5
               2	          26E912
               2	          26E517
               2	          26E483
               2	          26E45F
               2	          26E418
               2	          26E3F0
               2	          26E333
               2	          26DDD1
               2	          26DB66
               2	          26D683
               2	          26D53C
               2	          26CFBF
               2	          26CA77
               2	          26C788
               2	          26C427
               2	          26C403
               2	          26B9C6
               2	          26B87B
               2	          26B775
               2	          26A62C
               2	          26A487
               2	          269E8C
               2	          26955D
               2	          268E21
               2	          2685C0
               2	          26826C
               2	          2681D2
               2	          2680E4
               2	          267E0D
               2	          267D52
               2	          267CEE
               2	          2674D5
               2	          26701F
               2	          26682B
               2	          26664B
               2	          2661B4
               2	          266197
               2	          26482C
               2	          263F31
               2	          263B0B
               2	          2630D8
               2	          262963
               2	          26278C
               2	          26260D
               2	          26233F
               2	          261EA2
               2	          261D72
               2	          261444
               2	          261013
               2	          260F7A
               2	          260E11
               2	          260C6D
               2	          25F76D
               2	          25F68C
               2	          25F60A
               2	          25F516
               2	          25F05D
               2	          25EFD5
               2	          25EC28
               2	          25DF76
               2	          25DF34
               2	          25DE5B
               2	          25DE1B
               2	          25DC96
               2	          25D9FC
               2	          25D7D4
               2	          25D7B0
               2	          25D184
               2	          25C8D0
               2	          25C389
               2	          25BF23
               2	          25BE44
               2	          25B54A
               2	          25AF24
               2	          25AE55
               2	          25A943
               2	          25A761
               2	          25A64E
               2	          25A050
               2	          258F31
               2	          2588BC
               2	          258755
               2	          257EE6
               2	          257B38
               2	          257091
               2	          256F26
               2	          256771
               2	          2566EC
               2	          254F2C
               2	          2544E1
               2	          253CEE
               2	          253CBD
               2	          253AF7
               2	          253A30
               2	          2530CF
               2	          25303D
               2	          252E90
               2	          252D3B
               2	          2525F2
               2	          2524F4
               2	          251F42
               2	          251B22
               2	          251328
               2	          251303
               2	          2511FA
               2	          250450
               2	          24F36A
               2	          24F1F7
               2	          24F196
               2	          24EF6B
               2	          24EB05
               2	          24E9E1
               2	          24E94A
               2	          24DDD4
               2	          24DCB3
               2	          24D93C
               2	          24D8C8
               2	          24D6AA
               2	          24D586
               2	          24D26A
               2	          24D0E4
               2	          24CBA6
               2	          24CAE4
               2	          24CAC2
               2	          24C9F1
               2	          24C79B
               2	          24C019
               2	          24BFD2
               2	          24BEE4
               2	          24BD87
               2	          24BB19
               2	          24B977
               2	          24B469
               2	          24AF7B
               2	          24AF35
               2	          24ABC9
               2	          24AAB8
               2	          24A6B7
[...]
               1	            698A
               1	            6961
               1	            6934
               1	            690F
               1	            68E4
               1	            68BF
               1	            6896
               1	            6871
               1	            6848
               1	            681B
               1	            67F6
               1	            67AA
               1	            6779
               1	            6751
               1	            6728
               1	            6701
               1	            66D8
               1	            66AD
               1	            6659
               1	            6632
               1	            6605
               1	            65DC
               1	            65B3
               1	            6563
               1	            6534
               1	            6509
               1	            64B3
               1	            6484
               1	            645B
               1	            6432
               1	            640F
               1	            63E4
               1	            63B5
               1	            638A
               1	            6362
               1	            633F
               1	            631A
               1	            62E5
               1	            62C2
               1	            629F
               1	            626E
               1	            6247
               1	            621C
               1	            61F1
               1	            61C8
               1	            6197
               1	            6113
               1	            60EA
               1	            60BF
               1	            609C
               1	            606B
               1	            6040
               1	            5FE4
               1	            5FB7
               1	            5F86
               1	            5F59
               1	            5F2C
               1	            5F0D
               1	            5EE4
               1	            5EC7
               1	            5E92
               1	            5E67
               1	            5DFD
               1	            5DD4
               1	            5DA1
               1	            5D78
               1	            5D51
               1	            5D2A
               1	            5CF9
               1	            5CD8
               1	            5CA9
               1	            5C72
               1	            5C49
               1	            5C22
               1	            5BFB
               1	            5BD6
               1	            5BB1
               1	            5B86
               1	            5B5F
               1	            5B33
               1	            5B06
               1	            5AE1
               1	            5AB6
               1	            5A87
               1	            5A5C
               1	            5A33
               1	            5A0A
               1	            59D8
               1	            5983
               1	            595C
               1	            5931
               1	            5906
               1	            58DD
               1	            58B2
               1	            5889
               1	            5864
               1	            5841
               1	            5816
               1	            57F1
               1	            57C4
               1	            578F
               1	            5768
               1	            5741
               1	            571E
               1	            56F1
               1	            56D0
               1	            56AF
               1	            568C
               1	            5640
               1	            5618
               1	            55F2
               1	            55CB
               1	            55A4
               1	            5575
               1	            5556
               1	            549F
               1	            546E
               1	            541A
               1	            53E5
               1	            53C0
               1	            5376
               1	            534F
               1	            5328
               1	            52D8
               1	            527F
               1	            5262
               1	            523D
               1	            5214
               1	            51ED
               1	            51CC
               1	            51A5
               1	            5180
               1	            5157
               1	            5134
               1	            5107
               1	            50E4
               1	            50BB
               1	            508E
               1	            5063
               1	            5042
               1	            5017
               1	            4FF4
               1	            4FC5
               1	            4F92
               1	            4F37
               1	            4F0F
               1	            4EDD
               1	            4EB0
               1	            4E60
               1	            4E35
               1	            4E16
               1	            4DF1
               1	            4DBC
               1	            4D93
               1	            4D6A
               1	            4D43
               1	            4D16
               1	            4CE9
               1	            4CC2
               1	            4C9B
               1	            4C3B
               1	            4C16
               1	            4BE5
               1	            4BA1
               1	            4B76
               1	            4B45
               1	            4B1C
               1	            4AC8
               1	            4AA1
               1	            4A82
               1	            4A5D
               1	            4A26
               1	            4A01
               1	            49D0
               1	            49A1
               1	            4982
               1	            4951
               1	            492C
               1	            48F9
               1	            48AB
               1	            4882
               1	            4857
               1	            482C
               1	            47FF
               1	            47D6
               1	            47AB
               1	            477F
               1	            4754
               1	            4729
               1	            46F6
               1	            46CF
               1	            46A2
               1	            4681
               1	            465E
               1	            4635
               1	            460E
               1	            45DF
               1	            45AC
               1	            458B
               1	            455E
               1	            4535
               1	            450A
               1	            44C0
               1	            449B
               1	            4467
               1	            443C
               1	            4403
               1	            43D8
               1	            43AD
               1	            437A
               1	            4343
               1	            430E
               1	            42DF
               1	            42AE
               1	            427B
               1	            4246
               1	            421D
               1	            41EA
               1	            4194
               1	            4165
               1	            413A
               1	            40E0
               1	            40B7
               1	            4094
               1	            4063
               1	            4040
               1	            4017
               1	            3FF4
               1	            3FCF
               1	            3FAA
               1	            3F7D
               1	            3F54
               1	            3F2D
               1	            3EFC
               1	            3ED7
               1	            3EB2
               1	            3E8B
               1	            3E5C
               1	            3E35
               1	            3E10
               1	            3DE3
               1	            3DBC
               1	            3D91
               1	            3D5E
               1	            3D29
               1	            3D06
               1	            3CD7
               1	            3CAC
               1	            3C83
               1	            3C5E
               1	            3C0D
               1	            3BE0
               1	            3BB5
               1	            3B49
               1	            3B1C
               1	            3AF0
               1	            3AB7
               1	            3A8A
               1	            3A5B
               1	            3A34
               1	            3A0D
               1	            39DE
               1	            39B7
               1	            3963
               1	            3938
               1	            390F
               1	            38DA
               1	            38A7
               1	            387C
               1	            384D
               1	            3823
               1	            37F4
               1	            37AE
               1	            376A
               1	            3743
               1	            371A
               1	            36ED
               1	            36CC
               1	            369D
               1	            367E
               1	            3630
               1	            3603
               1	            35DA
               1	            35B5
               1	            3561
               1	            3540
               1	            351B
               1	            34CD
               1	            3498
               1	            3465
               1	            3438
               1	            3411
               1	            33BB
               1	            3398
               1	            336A
               1	            3330
               1	            3309
               1	            32E2
               1	            32B9
               1	            3288
               1	            325B
               1	            3234
               1	            3203
               1	            31D8
               1	            31AF
               1	            3184
               1	            315B
               1	            3134
               1	            3101
               1	            30DA
               1	            30A9
               1	            307A
               1	            304B
               1	            301C
               1	            2FEF
               1	            2FC6
               1	            2FA1
               1	            2F45
               1	            2F0C
               1	            2EE3
               1	            2EBA
               1	            2E91
               1	            2E62
               1	            2E33
               1	            2E02
               1	            2DD9
               1	            2DA8
               1	            2D79
               1	            2D48
               1	            2D25
               1	            2CF6
               1	            2CAA
               1	            2C62
               1	            2C35
               1	            2C04
               1	            2BCD
               1	            2BA8
               1	            2B7F
               1	            2B52
               1	            2B23
               1	            2AFA
               1	            2ACB
               1	            2A71
               1	            2A4A
               1	            2A1F
               1	            29EC
               1	            29BF
               1	            2998
               1	            2973
               1	            294A
               1	            291D
               1	            28EE
               1	            28C1
               1	            2896
               1	            286B
               1	            283E
               1	            280B
               1	            27DC
               1	            27B1
               1	            277E
               1	            2757
               1	            272E
               1	            270B
               1	            26DA
               1	            2680
               1	            2651
               1	            2622
               1	            25F3
               1	            25C4
               1	            259B
               1	            256A
               1	            253F
               1	            24A5
               1	            2476
               1	            244B
               1	            2422
               1	            23FB
               1	            23CA
               1	            2397
               1	            2368
               1	            232F
               1	            2304
               1	            22DB
               1	            22B4
               1	            228D
               1	            2260
               1	            2240
               1	            2212
               1	            21E9
               1	            21C0
               1	            2199
               1	            216B
               1	            213E
               1	            2110
               1	            20E3
               1	            20B6
               1	            2085
               1	            2052
               1	            1FF5
               1	            1FC6
               1	            1F93
               1	            1F63
               1	            1F3E
               1	            1F0F
               1	            1EB3
               1	            1E88
               1	            1E5D
               1	            1E36
               1	            1E00
               1	            1DD3
               1	            1DA6
               1	            1D77
               1	            1D4C
               1	            1D23
               1	            1CD5
               1	            1CB0
               1	            1C87
               1	            1C58
               1	            1C29
               1	            1BFE
               1	            1BD3
               1	            1BA6
               1	            1B7F
               1	            1B59
               1	            1B2A
               1	            1AFD
               1	            1ACE
               1	            1A9D
               1	            1A6A
               1	            1A43
               1	            1A08
               1	            19E1
               1	            19B6
               1	            1991
               1	            195E
               1	            192B
               1	            18FA
               1	            18CB
               1	            18A4
               1	            187B
               1	            1827
               1	            17FE
               1	            17DD
               1	            17B2
               1	            177D
               1	            1748
               1	            171F
               1	            16F8
               1	            16CA
               1	            16A5
               1	            1672
               1	            164B
               1	            1626
               1	            1601
               1	            15DA
               1	            15B9
               1	            158E
               1	            1525
               1	            14FE
               1	            14D3
               1	            14AE
               1	            1487
               1	            1466
               1	            1441
               1	            1410
               1	            13E9
               1	            13C4
               1	            139D
               1	            1374
               1	            134D
               1	            1326
               1	            1307
               1	            12DE
               1	            12B9
               1	            1292
               1	            1265
               1	            1232
               1	            120B
               1	            11E4
               1	            11BF
               1	            1190
               1	            116F
               1	            114C
               1	            1123
               1	            10F7
               1	            10D0
               1	            10A9
               1	            107A
               1	            1051
               1	            1028
               1	             FF5
               1	             FCA
               1	             F9F
               1	             F78
               1	             F51
               1	             F28
               1	             EFF
               1	             ED2
               1	             EA5
               1	             E76
               1	             E47
               1	             E20
               1	             DFD
               1	             DCA
               1	             DA7
               1	             D7C
               1	             D55
               1	             CFF
               1	             CDC
               1	             CB5
               1	             C8A
               1	             C5F
               1	             C38
               1	             C0F
               1	             BDE
               1	             BAF
               1	             B80
               1	             B4F
               1	             B28
               1	             AFD
               1	             AD6
               1	             AA5
               1	             A7A
               1	             A49
               1	             A18
               1	             9EF
               1	             9CB
               1	             9A6
               1	             983
               1	             956
               1	             92B
               1	             8FA
               1	             8B1
               1	             882
               1	             856
               1	             82D
               1	             808
               1	             7E1
               1	             7BC
               1	             795
               1	             76A
               1	             741
               1	             710
               1	             6E7
               1	             6C2
               1	             699
               1	             65E
               1	             635
               1	             604
               1	             5DB
               1	             5B0
               1	             574
               1	             545
               1	             518
               1	             4E3
               1	             4B8
               1	             487
               1	             453
               1	             422
               1	             3FD
               1	             3D2
               1	             3A1
               1	             385
               1	             364
               1	             33C
               1	             324
               1	             30A
               1	             2E8
               1	             2CC
               1	             2A2
               1	             27A
               1	             260
               1	             244
               1	             220
               1	             1FC
               1	             1C4
               1	             1A8
               1	             186
               1	             162
               1	             13C
               1	             114
               1	              F4
               1	              CE
               1	              A9
               1	              80
               1	              64
               1	              3C
               1	              12
